
*** ChampSim Multicore Out-of-Order Simulator ***

Warmup Instructions: 25000000
Simulation Instructions: 25000000
Number of CPUs: 1
LLC sets: 2048
LLC ways: 16
Off-chip DRAM Size: 4096 MB Channels: 1 Width: 64-bit Data Rate: 6400 MT/s
CPU 0 runs trace/trace1.champsimtrace.xz
.xz
BTB has LRU replacement policy
ITLB has LRU replacement policy
DTLB has LRU replacement policy
STLB has LRU replacement policy
L1I has LRU replacement policy
L1D has LRU replacement policy
CPU 0 L2C Region-Based Offset Prefetcher (Improved) initialized.
L2C has LRU replacement policy
LLC has LRU replacement policy
Heartbeat CPU 0 instructions: 10000000 cycles: 2548455 heartbeat IPC: 3.92395 cumulative IPC: 3.92395 (Simulation time: 0 hr 0 min 14 sec) 
Heartbeat CPU 0 instructions: 20000001 cycles: 5092083 heartbeat IPC: 3.93139 cumulative IPC: 3.92767 (Simulation time: 0 hr 0 min 28 sec) 

Warmup complete CPU 0 instructions: 25000008 cycles: 6360502 (Simulation time: 0 hr 0 min 35 sec) 

Heartbeat CPU 0 instructions: 30000007 cycles: 15894562 heartbeat IPC: 0.925714 cumulative IPC: 0.524435 (Simulation time: 0 hr 1 min 8 sec) 
Heartbeat CPU 0 instructions: 40000002 cycles: 34610172 heartbeat IPC: 0.534313 cumulative IPC: 0.530979 (Simulation time: 0 hr 2 min 11 sec) 
Heartbeat CPU 0 instructions: 50000006 cycles: 52666915 heartbeat IPC: 0.55381 cumulative IPC: 0.539882 (Simulation time: 0 hr 3 min 12 sec) 
Finished CPU 0 instructions: 25000004 cycles: 46306427 cumulative IPC: 0.539882 (Simulation time: 0 hr 3 min 12 sec) 

ChampSim completed all CPUs

Region of Interest Statistics

CPU 0 cumulative IPC: 0.539882 instructions: 25000004 cycles: 46306427
ITLB TOTAL     ACCESS:    3490835  HIT:    3490835  MISS:          0  HIT %:        100  MISS %:          0   MPKI: 0
ITLB LOAD TRANSLATION ACCESS:    3490835  HIT:    3490835  MISS:          0  HIT %:        100  MISS %:          0   MPKI: 0
ITLB PREFETCH  REQUESTED:          0  ISSUED:          0  USEFUL:          0  USELESS:          0
ITLB USEFUL LOAD PREFETCHES:          0 PREFETCH ISSUED TO LOWER LEVEL:          0  ACCURACY: -nan
ITLB TIMELY PREFETCHES:          0 LATE PREFETCHES: 0 DROPPED PREFETCHES: 0
ITLB PREFETCHES SAME FILL-ORIGIN LEVEL: 0 DIFFERENT FILL-ORIGIN LEVEL: 0
ITLB AVERAGE MISS LATENCY: -nan cycles
ITLB RQ	ACCESS:    4459691	FORWARD:          0	MERGED:     968856	TO_CACHE:    3490835

DTLB TOTAL     ACCESS:    3332925  HIT:    3304100  MISS:      28825  HIT %:    99.1351  MISS %:   0.864856   MPKI: 1.153
DTLB LOAD TRANSLATION ACCESS:    3332925  HIT:    3304100  MISS:      28825  HIT %:    99.1351  MISS %:   0.864856   MPKI: 1.153
DTLB PREFETCH  REQUESTED:          0  ISSUED:          0  USEFUL:          0  USELESS:          0
DTLB USEFUL LOAD PREFETCHES:          0 PREFETCH ISSUED TO LOWER LEVEL:          0  ACCURACY: -nan
DTLB TIMELY PREFETCHES:          0 LATE PREFETCHES: 0 DROPPED PREFETCHES: 0
DTLB PREFETCHES SAME FILL-ORIGIN LEVEL: 0 DIFFERENT FILL-ORIGIN LEVEL: 0
DTLB AVERAGE MISS LATENCY: 111.66 cycles
DTLB RQ	ACCESS:    5449736	FORWARD:          0	MERGED:    2104929	TO_CACHE:    3344807

STLB TOTAL     ACCESS:      28825  HIT:      13183  MISS:      15642  HIT %:    45.7346  MISS %:    54.2654   MPKI: 0.62568
STLB LOAD TRANSLATION ACCESS:      28825  HIT:      13183  MISS:      15642  HIT %:    45.7346  MISS %:    54.2654   MPKI: 0.62568
STLB PREFETCH  REQUESTED:          0  ISSUED:          0  USEFUL:          0  USELESS:          0
STLB USEFUL LOAD PREFETCHES:          0 PREFETCH ISSUED TO LOWER LEVEL:          0  ACCURACY: -nan
STLB TIMELY PREFETCHES:          0 LATE PREFETCHES: 0 DROPPED PREFETCHES: 0
STLB PREFETCHES SAME FILL-ORIGIN LEVEL: 0 DIFFERENT FILL-ORIGIN LEVEL: 0
STLB AVERAGE MISS LATENCY: 186.791 cycles
STLB RQ	ACCESS:      28825	FORWARD:          0	MERGED:          0	TO_CACHE:      28825

STLB Hit, L1D data hit: 0
STLB Hit, L2C data hit: 0
STLB Hit, LLC data hit: 0
STLB Hit, LLC data miss: 0
STLB STLB hints to L2: 0
L1D TOTAL     ACCESS:    5348378  HIT:    3697117  MISS:    1651261  HIT %:    69.1259  MISS %:    30.8741   MPKI: 66.0504
L1D LOAD      ACCESS:    1178431  HIT:     928226  MISS:     250205  HIT %:     78.768  MISS %:     21.232   MPKI: 10.0082
L1D RFO       ACCESS:    4169947  HIT:    2768891  MISS:    1401056  HIT %:    66.4011  MISS %:    33.5989   MPKI: 56.0422
L1D PREFETCH  REQUESTED:          0  ISSUED:          0  USEFUL:          0  USELESS:          0
L1D USEFUL LOAD PREFETCHES:          0 PREFETCH ISSUED TO LOWER LEVEL:          0  ACCURACY: -nan
L1D TIMELY PREFETCHES:          0 LATE PREFETCHES: 0 DROPPED PREFETCHES: 0
L1D PREFETCHES SAME FILL-ORIGIN LEVEL: 0 DIFFERENT FILL-ORIGIN LEVEL: 0
L1D AVERAGE MISS LATENCY: 329.854 cycles
L1D RQ	ACCESS:    4031424	FORWARD:          0	MERGED:    2529515	TO_CACHE:    1263924
L1D WQ	ACCESS:    4349460	FORWARD:     237985	MERGED:     163648	TO_CACHE:    4185812

L1D UNIQUE REGIONS ACCESSED: 0
L1D REGIONS CONFLICTS: 0
L1D Cross Page Prefetch Requests: 0
L1D Same Page Prefetch Requests: 0
L1D ROI Sum of L1D PQ occupancy: 0
L1D PREFETCHES PUSHED FROM L2C: 0
L1I TOTAL     ACCESS:    4459690  HIT:    4459690  MISS:          0  HIT %:        100  MISS %:          0   MPKI: 0
L1I LOAD      ACCESS:    4459690  HIT:    4459690  MISS:          0  HIT %:        100  MISS %:          0   MPKI: 0
L1I PREFETCH  REQUESTED:          0  ISSUED:          0  USEFUL:          0  USELESS:          0
L1I USEFUL LOAD PREFETCHES:          0 PREFETCH ISSUED TO LOWER LEVEL:          0  ACCURACY: -nan
L1I TIMELY PREFETCHES:          0 LATE PREFETCHES: 0 DROPPED PREFETCHES: 0
L1I PREFETCHES SAME FILL-ORIGIN LEVEL: 0 DIFFERENT FILL-ORIGIN LEVEL: 0
L1I AVERAGE MISS LATENCY: -nan cycles
L1I RQ	ACCESS:    6513055	FORWARD:          0	MERGED:    2053364	TO_CACHE:    4459691

BTB TOTAL     ACCESS:     396212  HIT:     396206  MISS:          6  HIT %:    99.9985  MISS %: 0.00151434   MPKI: 0.00024
BTB BRANCH_DIRECT_JUMP	ACCESS:      52070  HIT:      52069  MISS:          1
BTB BRANCH_INDIRECT	ACCESS:          0  HIT:          0  MISS:          0
BTB BRANCH_CONDITIONAL	ACCESS:     344142  HIT:     344137  MISS:          5
BTB BRANCH_DIRECT_CALL	ACCESS:          0  HIT:          0  MISS:          0
BTB BRANCH_INDIRECT_CALL	ACCESS:          0  HIT:          0  MISS:          0
BTB BRANCH_RETURN	ACCESS:          0  HIT:          0  MISS:          0
BTB BRANCH_OTHER ACCESS:          0  HIT:          0  MISS:          0

L2C TOTAL     ACCESS:    3257234  HIT:    2248539  MISS:    1008695  HIT %:    69.0322  MISS %:    30.9678   MPKI: 40.3478
L2C LOAD      ACCESS:     250205  HIT:      26168  MISS:     224037  HIT %:    10.4586  MISS %:    89.5414   MPKI: 8.96148
L2C DATA LOAD MPKI: 8.96148
L2C INSTRUCTION LOAD MPKI: 0
L2C RFO       ACCESS:    1401056  HIT:     644568  MISS:     756488  HIT %:    46.0059  MISS %:    53.9941   MPKI: 30.2595
L2C PREFETCH  ACCESS:     189272  HIT:     163109  MISS:      26163  HIT %:     86.177  MISS %:     13.823   MPKI: 1.04652
AGUS PREFETCH L1 MISS: 0
L2C DATA PREFETCH MPKI: 1.04652
L2C INSTRUCTION PREFETCH MPKI: 0
L2C WRITEBACK ACCESS:    1401057  HIT:    1401027  MISS:         30  HIT %:    99.9979  MISS %: 0.00214124   MPKI: 0.0012
L2C LOAD TRANSLATION ACCESS:      15644  HIT:      13667  MISS:       1977  HIT %:    87.3626  MISS %:    12.6374   MPKI: 0.07908
L2C PREFETCH  REQUESTED:     223973  ISSUED:     223973  USEFUL:      26160  USELESS:         13
L2C USEFUL LOAD PREFETCHES:      26160 PREFETCH ISSUED TO LOWER LEVEL:      35736  ACCURACY: 73.2035
L2C TIMELY PREFETCHES:      26160 LATE PREFETCHES: 1141 DROPPED PREFETCHES: 0
L2C PREFETCHES SAME FILL-ORIGIN LEVEL: 27304 DIFFERENT FILL-ORIGIN LEVEL: 8432
L2C AVERAGE MISS LATENCY: 528.077 cycles
L2C RQ	ACCESS:    1666906	FORWARD:          0	MERGED:          0	TO_CACHE:    1666906
L2C WQ	ACCESS:    1401057	FORWARD:          0	MERGED:          0	TO_CACHE:    1401057
L2C PQ	ACCESS:     223973	FORWARD:          0	MERGED:         16	TO_CACHE:     223957

L2C Instructions Evicting Data 0
L2C Translations Evicting Data 1974
L2C Data Evicting Data 1004706
L2C Instructions Evicting Instructions 0
L2C Translations Evicting Instructions 0
L2C Data Evicting Instructions 0
L2C Instructions Evicting Translations 0
L2C Translations Evicting Translations 3
L2C Data Evicting Translations 1982
L2C Dense regions hint from L2: 0
PSCL5 TOTAL     ACCESS:      15642  HIT:      15642  MISS:          0  HIT %:        100  MISS %:          0   MPKI: 0
PSCL5 LOAD TRANSLATION ACCESS:      15642  HIT:      15642  MISS:          0  HIT %:        100  MISS %:          0   MPKI: 0
PSCL5 PREFETCH  REQUESTED:          0  ISSUED:          0  USEFUL:          0  USELESS:          0
PSCL5 USEFUL LOAD PREFETCHES:          0 PREFETCH ISSUED TO LOWER LEVEL:          0  ACCURACY: -nan
PSCL5 TIMELY PREFETCHES:          0 LATE PREFETCHES: 0 DROPPED PREFETCHES: 0
PSCL5 PREFETCHES SAME FILL-ORIGIN LEVEL: 0 DIFFERENT FILL-ORIGIN LEVEL: 0

PSCL4 TOTAL     ACCESS:      15642  HIT:      15642  MISS:          0  HIT %:        100  MISS %:          0   MPKI: 0
PSCL4 LOAD TRANSLATION ACCESS:      15642  HIT:      15642  MISS:          0  HIT %:        100  MISS %:          0   MPKI: 0
PSCL4 PREFETCH  REQUESTED:          0  ISSUED:          0  USEFUL:          0  USELESS:          0
PSCL4 USEFUL LOAD PREFETCHES:          0 PREFETCH ISSUED TO LOWER LEVEL:          0  ACCURACY: -nan
PSCL4 TIMELY PREFETCHES:          0 LATE PREFETCHES: 0 DROPPED PREFETCHES: 0
PSCL4 PREFETCHES SAME FILL-ORIGIN LEVEL: 0 DIFFERENT FILL-ORIGIN LEVEL: 0

PSCL3 TOTAL     ACCESS:      15642  HIT:      15642  MISS:          0  HIT %:        100  MISS %:          0   MPKI: 0
PSCL3 LOAD TRANSLATION ACCESS:      15642  HIT:      15642  MISS:          0  HIT %:        100  MISS %:          0   MPKI: 0
PSCL3 PREFETCH  REQUESTED:          0  ISSUED:          0  USEFUL:          0  USELESS:          0
PSCL3 USEFUL LOAD PREFETCHES:          0 PREFETCH ISSUED TO LOWER LEVEL:          0  ACCURACY: -nan
PSCL3 TIMELY PREFETCHES:          0 LATE PREFETCHES: 0 DROPPED PREFETCHES: 0
PSCL3 PREFETCHES SAME FILL-ORIGIN LEVEL: 0 DIFFERENT FILL-ORIGIN LEVEL: 0

PSCL2 TOTAL     ACCESS:      15642  HIT:      15625  MISS:         17  HIT %:    99.8913  MISS %:   0.108682   MPKI: 0.00068
PSCL2 LOAD TRANSLATION ACCESS:      15642  HIT:      15625  MISS:         17  HIT %:    99.8913  MISS %:   0.108682   MPKI: 0.00068
PSCL2 PREFETCH  REQUESTED:          0  ISSUED:          0  USEFUL:          0  USELESS:          0
PSCL2 USEFUL LOAD PREFETCHES:          0 PREFETCH ISSUED TO LOWER LEVEL:          0  ACCURACY: -nan
PSCL2 TIMELY PREFETCHES:          0 LATE PREFETCHES: 0 DROPPED PREFETCHES: 0
PSCL2 PREFETCHES SAME FILL-ORIGIN LEVEL: 0 DIFFERENT FILL-ORIGIN LEVEL: 0

LLC TOTAL     ACCESS:    1773923  HIT:     771177  MISS:    1002746  HIT %:     43.473  MISS %:     56.527   MPKI: 40.1098
LLC LOAD      ACCESS:     222896  HIT:       7981  MISS:     214915  HIT %:    3.58059  MISS %:    96.4194   MPKI: 8.5966
LLC RFO       ACCESS:     756483  HIT:       5944  MISS:     750539  HIT %:   0.785741  MISS %:    99.2143   MPKI: 30.0216
LLC PREFETCH  ACCESS:      35404  HIT:        119  MISS:      35285  HIT %:    0.33612  MISS %:    99.6639   MPKI: 1.4114
AGUS PREFETCH L1 MISS: 0
LLC WRITEBACK ACCESS:     757163  HIT:     757133  MISS:         30  HIT %:     99.996  MISS %: 0.00396216   MPKI: 0.0012
LLC LOAD TRANSLATION ACCESS:       1977  HIT:          0  MISS:       1977  HIT %:          0  MISS %:        100   MPKI: 0.07908
LLC PREFETCH  REQUESTED:          0  ISSUED:          0  USEFUL:       7981  USELESS:      27701
LLC USEFUL LOAD PREFETCHES:       7981 PREFETCH ISSUED TO LOWER LEVEL:      35567  ACCURACY: 22.4393
LLC TIMELY PREFETCHES:       7981 LATE PREFETCHES: 282 DROPPED PREFETCHES: 0
LLC PREFETCHES SAME FILL-ORIGIN LEVEL: 8354 DIFFERENT FILL-ORIGIN LEVEL: 0
LLC AVERAGE MISS LATENCY: 505.682 cycles
LLC RQ	ACCESS:     981362	FORWARD:          0	MERGED:          0	TO_CACHE:     981357
LLC WQ	ACCESS:     757163	FORWARD:          5	MERGED:          0	TO_CACHE:     757163
LLC PQ	ACCESS:      35736	FORWARD:          0	MERGED:          0	TO_CACHE:      35736

LLC Dense regions hint to LLC: 0

RAW hits: 2290231
Reg RAW dependents: 19695379
Loads Generated: 6321679
Loads sent to L1D: 4031424
Stores Generated: 4349455
Stores sent to L1D: 4349460
Major fault: 0 Minor fault: 19681
Allocated PAGES: 19681
Average branch resolution latency (in cycles): 61.5706

DRAM Statistics
 CHANNEL 0
 RQ ROW_BUFFER_HIT:      69665  ROW_BUFFER_MISS:     933051
 DBUS_CONGESTED:          0
 WQ ROW_BUFFER_HIT:     163733  ROW_BUFFER_MISS:     587742  FULL:          0

 AVG_CONGESTED_CYCLE: -
 All warmup complete: 2
Channel 0 Bank busy for read cycles: 0
Channel 0 Bank busy for write cycles: 0
Channel 0
Rank 0
0banks busy for read cycles: 19753
0banks busy for write cycles: 0
1banks busy for read cycles: 2123180
1banks busy for write cycles: 80482
2banks busy for read cycles: 753959
2banks busy for write cycles: 80482
3banks busy for read cycles: 973006
3banks busy for write cycles: 80482
4banks busy for read cycles: 5324795
4banks busy for write cycles: 80482
5banks busy for read cycles: 5795450
5banks busy for write cycles: 80482
6banks busy for read cycles: 5519819
6banks busy for write cycles: 80623
7banks busy for read cycles: 5185945
7banks busy for write cycles: 834991
8banks busy for read cycles: 4285484
8banks busy for write cycles: 15007013

CPU 0 Branch Prediction Accuracy: 97.8416% MPKI: 0.34208 Average ROB Occupancy at Mispredict: 275.751
Branch types
NOT_BRANCH: 24604096 98.4164%
BRANCH_DIRECT_JUMP: 52070 0.20828%
BRANCH_INDIRECT: 0 0%
BRANCH_CONDITIONAL: 344150 1.3766%
BRANCH_DIRECT_CALL: 0 0%
BRANCH_INDIRECT_CALL: 0 0%
BRANCH_RETURN: 0 0%
BRANCH_OTHER: 0 0%

DRAM PAGES: 1048576
Allocated PAGES: 19681
