
*** ChampSim Multicore Out-of-Order Simulator ***

Warmup Instructions: 25000000
Simulation Instructions: 25000000
Number of CPUs: 1
LLC sets: 2048
LLC ways: 16
Off-chip DRAM Size: 4096 MB Channels: 1 Width: 64-bit Data Rate: 6400 MT/s
CPU 0 runs trace/trace1.champsimtrace.xz
.xz
BTB has LRU replacement policy
ITLB has LRU replacement policy
DTLB has LRU replacement policy
STLB has LRU replacement policy
L1I has LRU replacement policy
L1D has LRU replacement policy
CPU 0 Region based L2 offset prefetcher
L2C has LRU replacement policy
LLC has LRU replacement policy
Heartbeat CPU 0 instructions: 10000000 cycles: 2548536 heartbeat IPC: 3.92382 cumulative IPC: 3.92382 (Simulation time: 0 hr 0 min 16 sec) 
Heartbeat CPU 0 instructions: 20000001 cycles: 5092411 heartbeat IPC: 3.93101 cumulative IPC: 3.92741 (Simulation time: 0 hr 0 min 31 sec) 

Warmup complete CPU 0 instructions: 25000008 cycles: 6360876 (Simulation time: 0 hr 0 min 38 sec) 

Heartbeat CPU 0 instructions: 30000007 cycles: 15648219 heartbeat IPC: 0.947346 cumulative IPC: 0.538367 (Simulation time: 0 hr 1 min 12 sec) 
Heartbeat CPU 0 instructions: 40000005 cycles: 33896754 heartbeat IPC: 0.547989 cumulative IPC: 0.544744 (Simulation time: 0 hr 2 min 17 sec) 
Heartbeat CPU 0 instructions: 50000000 cycles: 51470549 heartbeat IPC: 0.569029 cumulative IPC: 0.554205 (Simulation time: 0 hr 3 min 20 sec) 
Finished CPU 0 instructions: 25000004 cycles: 45109692 cumulative IPC: 0.554205 (Simulation time: 0 hr 3 min 20 sec) 

ChampSim completed all CPUs

Region of Interest Statistics

CPU 0 cumulative IPC: 0.554205 instructions: 25000004 cycles: 45109692
ITLB TOTAL     ACCESS:    3472741  HIT:    3472741  MISS:          0  HIT %:        100  MISS %:          0   MPKI: 0
ITLB LOAD TRANSLATION ACCESS:    3472741  HIT:    3472741  MISS:          0  HIT %:        100  MISS %:          0   MPKI: 0
ITLB PREFETCH  REQUESTED:          0  ISSUED:          0  USEFUL:          0  USELESS:          0
ITLB USEFUL LOAD PREFETCHES:          0 PREFETCH ISSUED TO LOWER LEVEL:          0  ACCURACY: -nan
ITLB TIMELY PREFETCHES:          0 LATE PREFETCHES: 0 DROPPED PREFETCHES: 0
ITLB PREFETCHES SAME FILL-ORIGIN LEVEL: 0 DIFFERENT FILL-ORIGIN LEVEL: 0
ITLB AVERAGE MISS LATENCY: -nan cycles
ITLB RQ	ACCESS:    4436651	FORWARD:          0	MERGED:     963910	TO_CACHE:    3472741

DTLB TOTAL     ACCESS:    3379394  HIT:    3350569  MISS:      28825  HIT %:     99.147  MISS %:   0.852964   MPKI: 1.153
DTLB LOAD TRANSLATION ACCESS:    3379394  HIT:    3350569  MISS:      28825  HIT %:     99.147  MISS %:   0.852964   MPKI: 1.153
DTLB PREFETCH  REQUESTED:          0  ISSUED:          0  USEFUL:          0  USELESS:          0
DTLB USEFUL LOAD PREFETCHES:          0 PREFETCH ISSUED TO LOWER LEVEL:          0  ACCURACY: -nan
DTLB TIMELY PREFETCHES:          0 LATE PREFETCHES: 0 DROPPED PREFETCHES: 0
DTLB PREFETCHES SAME FILL-ORIGIN LEVEL: 0 DIFFERENT FILL-ORIGIN LEVEL: 0
DTLB AVERAGE MISS LATENCY: 113.836 cycles
DTLB RQ	ACCESS:    5513962	FORWARD:          0	MERGED:    2123110	TO_CACHE:    3390852

STLB TOTAL     ACCESS:      28825  HIT:      13183  MISS:      15642  HIT %:    45.7346  MISS %:    54.2654   MPKI: 0.62568
STLB LOAD TRANSLATION ACCESS:      28825  HIT:      13183  MISS:      15642  HIT %:    45.7346  MISS %:    54.2654   MPKI: 0.62568
STLB PREFETCH  REQUESTED:          0  ISSUED:          0  USEFUL:          0  USELESS:          0
STLB USEFUL LOAD PREFETCHES:          0 PREFETCH ISSUED TO LOWER LEVEL:          0  ACCURACY: -nan
STLB TIMELY PREFETCHES:          0 LATE PREFETCHES: 0 DROPPED PREFETCHES: 0
STLB PREFETCHES SAME FILL-ORIGIN LEVEL: 0 DIFFERENT FILL-ORIGIN LEVEL: 0
STLB AVERAGE MISS LATENCY: 190.921 cycles
STLB RQ	ACCESS:      28825	FORWARD:          0	MERGED:          0	TO_CACHE:      28825

STLB Hit, L1D data hit: 0
STLB Hit, L2C data hit: 0
STLB Hit, LLC data hit: 0
STLB Hit, LLC data miss: 0
STLB STLB hints to L2: 0
L1D TOTAL     ACCESS:    5417682  HIT:    3766421  MISS:    1651261  HIT %:    69.5209  MISS %:    30.4791   MPKI: 66.0504
L1D LOAD      ACCESS:    1248004  HIT:     997800  MISS:     250204  HIT %:    79.9517  MISS %:    20.0483   MPKI: 10.0082
L1D RFO       ACCESS:    4169678  HIT:    2768621  MISS:    1401057  HIT %:    66.3989  MISS %:    33.6011   MPKI: 56.0423
L1D PREFETCH  REQUESTED:          0  ISSUED:          0  USEFUL:          0  USELESS:          0
L1D USEFUL LOAD PREFETCHES:          0 PREFETCH ISSUED TO LOWER LEVEL:          0  ACCURACY: -nan
L1D TIMELY PREFETCHES:          0 LATE PREFETCHES: 0 DROPPED PREFETCHES: 0
L1D PREFETCHES SAME FILL-ORIGIN LEVEL: 0 DIFFERENT FILL-ORIGIN LEVEL: 0
L1D AVERAGE MISS LATENCY: 334.178 cycles
L1D RQ	ACCESS:    4109994	FORWARD:          0	MERGED:    2562355	TO_CACHE:    1327963
L1D WQ	ACCESS:    4349460	FORWARD:     219676	MERGED:     163461	TO_CACHE:    4185999

L1D UNIQUE REGIONS ACCESSED: 0
L1D REGIONS CONFLICTS: 0
L1D Cross Page Prefetch Requests: 0
L1D Same Page Prefetch Requests: 0
L1D ROI Sum of L1D PQ occupancy: 0
L1D PREFETCHES PUSHED FROM L2C: 0
L1I TOTAL     ACCESS:    4436650  HIT:    4436650  MISS:          0  HIT %:        100  MISS %:          0   MPKI: 0
L1I LOAD      ACCESS:    4436650  HIT:    4436650  MISS:          0  HIT %:        100  MISS %:          0   MPKI: 0
L1I PREFETCH  REQUESTED:          0  ISSUED:          0  USEFUL:          0  USELESS:          0
L1I USEFUL LOAD PREFETCHES:          0 PREFETCH ISSUED TO LOWER LEVEL:          0  ACCURACY: -nan
L1I TIMELY PREFETCHES:          0 LATE PREFETCHES: 0 DROPPED PREFETCHES: 0
L1I PREFETCHES SAME FILL-ORIGIN LEVEL: 0 DIFFERENT FILL-ORIGIN LEVEL: 0
L1I AVERAGE MISS LATENCY: -nan cycles
L1I RQ	ACCESS:    6474930	FORWARD:          0	MERGED:    2038279	TO_CACHE:    4436651

BTB TOTAL     ACCESS:     396212  HIT:     396206  MISS:          6  HIT %:    99.9985  MISS %: 0.00151434   MPKI: 0.00024
BTB BRANCH_DIRECT_JUMP	ACCESS:      52070  HIT:      52069  MISS:          1
BTB BRANCH_INDIRECT	ACCESS:          0  HIT:          0  MISS:          0
BTB BRANCH_CONDITIONAL	ACCESS:     344142  HIT:     344137  MISS:          5
BTB BRANCH_DIRECT_CALL	ACCESS:          0  HIT:          0  MISS:          0
BTB BRANCH_INDIRECT_CALL	ACCESS:          0  HIT:          0  MISS:          0
BTB BRANCH_RETURN	ACCESS:          0  HIT:          0  MISS:          0
BTB BRANCH_OTHER ACCESS:          0  HIT:          0  MISS:          0

L2C TOTAL     ACCESS:    3150643  HIT:    2141871  MISS:    1008772  HIT %:     67.982  MISS %:     32.018   MPKI: 40.3509
L2C LOAD      ACCESS:     250204  HIT:      25160  MISS:     225044  HIT %:    10.0558  MISS %:    89.9442   MPKI: 9.00176
L2C DATA LOAD MPKI: 9.00176
L2C INSTRUCTION LOAD MPKI: 0
L2C RFO       ACCESS:    1401057  HIT:     644493  MISS:     756564  HIT %:    46.0005  MISS %:    53.9995   MPKI: 30.2626
L2C PREFETCH  ACCESS:      82681  HIT:      57524  MISS:      25157  HIT %:    69.5734  MISS %:    30.4266   MPKI: 1.00628
AGUS PREFETCH L1 MISS: 0
L2C DATA PREFETCH MPKI: 1.00628
L2C INSTRUCTION PREFETCH MPKI: 0
L2C WRITEBACK ACCESS:    1401057  HIT:    1401027  MISS:         30  HIT %:    99.9979  MISS %: 0.00214124   MPKI: 0.0012
L2C LOAD TRANSLATION ACCESS:      15644  HIT:      13667  MISS:       1977  HIT %:    87.3626  MISS %:    12.6374   MPKI: 0.07908
L2C PREFETCH  REQUESTED:     244341  ISSUED:     244341  USEFUL:      25153  USELESS:          7
L2C USEFUL LOAD PREFETCHES:      25153 PREFETCH ISSUED TO LOWER LEVEL:      89602  ACCURACY: 28.0719
L2C TIMELY PREFETCHES:      25153 LATE PREFETCHES: 47943 DROPPED PREFETCHES: 0
L2C PREFETCHES SAME FILL-ORIGIN LEVEL: 73100 DIFFERENT FILL-ORIGIN LEVEL: 16502
L2C AVERAGE MISS LATENCY: 533.304 cycles
L2C RQ	ACCESS:    1666905	FORWARD:          0	MERGED:          0	TO_CACHE:    1666905
L2C WQ	ACCESS:    1401057	FORWARD:          0	MERGED:          0	TO_CACHE:    1401057
L2C PQ	ACCESS:     244341	FORWARD:          0	MERGED:       1253	TO_CACHE:     243088

L2C Instructions Evicting Data 0
L2C Translations Evicting Data 1975
L2C Data Evicting Data 1004783
L2C Instructions Evicting Instructions 0
L2C Translations Evicting Instructions 0
L2C Data Evicting Instructions 0
L2C Instructions Evicting Translations 0
L2C Translations Evicting Translations 2
L2C Data Evicting Translations 1982
L2C Dense regions hint from L2: 0
PSCL5 TOTAL     ACCESS:      15642  HIT:      15642  MISS:          0  HIT %:        100  MISS %:          0   MPKI: 0
PSCL5 LOAD TRANSLATION ACCESS:      15642  HIT:      15642  MISS:          0  HIT %:        100  MISS %:          0   MPKI: 0
PSCL5 PREFETCH  REQUESTED:          0  ISSUED:          0  USEFUL:          0  USELESS:          0
PSCL5 USEFUL LOAD PREFETCHES:          0 PREFETCH ISSUED TO LOWER LEVEL:          0  ACCURACY: -nan
PSCL5 TIMELY PREFETCHES:          0 LATE PREFETCHES: 0 DROPPED PREFETCHES: 0
PSCL5 PREFETCHES SAME FILL-ORIGIN LEVEL: 0 DIFFERENT FILL-ORIGIN LEVEL: 0

PSCL4 TOTAL     ACCESS:      15642  HIT:      15642  MISS:          0  HIT %:        100  MISS %:          0   MPKI: 0
PSCL4 LOAD TRANSLATION ACCESS:      15642  HIT:      15642  MISS:          0  HIT %:        100  MISS %:          0   MPKI: 0
PSCL4 PREFETCH  REQUESTED:          0  ISSUED:          0  USEFUL:          0  USELESS:          0
PSCL4 USEFUL LOAD PREFETCHES:          0 PREFETCH ISSUED TO LOWER LEVEL:          0  ACCURACY: -nan
PSCL4 TIMELY PREFETCHES:          0 LATE PREFETCHES: 0 DROPPED PREFETCHES: 0
PSCL4 PREFETCHES SAME FILL-ORIGIN LEVEL: 0 DIFFERENT FILL-ORIGIN LEVEL: 0

PSCL3 TOTAL     ACCESS:      15642  HIT:      15642  MISS:          0  HIT %:        100  MISS %:          0   MPKI: 0
PSCL3 LOAD TRANSLATION ACCESS:      15642  HIT:      15642  MISS:          0  HIT %:        100  MISS %:          0   MPKI: 0
PSCL3 PREFETCH  REQUESTED:          0  ISSUED:          0  USEFUL:          0  USELESS:          0
PSCL3 USEFUL LOAD PREFETCHES:          0 PREFETCH ISSUED TO LOWER LEVEL:          0  ACCURACY: -nan
PSCL3 TIMELY PREFETCHES:          0 LATE PREFETCHES: 0 DROPPED PREFETCHES: 0
PSCL3 PREFETCHES SAME FILL-ORIGIN LEVEL: 0 DIFFERENT FILL-ORIGIN LEVEL: 0

PSCL2 TOTAL     ACCESS:      15642  HIT:      15625  MISS:         17  HIT %:    99.8913  MISS %:   0.108682   MPKI: 0.00068
PSCL2 LOAD TRANSLATION ACCESS:      15642  HIT:      15625  MISS:         17  HIT %:    99.8913  MISS %:   0.108682   MPKI: 0.00068
PSCL2 PREFETCH  REQUESTED:          0  ISSUED:          0  USEFUL:          0  USELESS:          0
PSCL2 USEFUL LOAD PREFETCHES:          0 PREFETCH ISSUED TO LOWER LEVEL:          0  ACCURACY: -nan
PSCL2 TIMELY PREFETCHES:          0 LATE PREFETCHES: 0 DROPPED PREFETCHES: 0
PSCL2 PREFETCHES SAME FILL-ORIGIN LEVEL: 0 DIFFERENT FILL-ORIGIN LEVEL: 0

LLC TOTAL     ACCESS:    1771710  HIT:     768966  MISS:    1002744  HIT %:    43.4025  MISS %:    56.5975   MPKI: 40.1098
LLC LOAD      ACCESS:     177101  HIT:       5554  MISS:     171547  HIT %:    3.13606  MISS %:    96.8639   MPKI: 6.86188
LLC RFO       ACCESS:     756551  HIT:       6011  MISS:     750540  HIT %:   0.794527  MISS %:    99.2055   MPKI: 30.0216
LLC PREFETCH  ACCESS:      78813  HIT:        163  MISS:      78650  HIT %:   0.206819  MISS %:    99.7932   MPKI: 3.146
AGUS PREFETCH L1 MISS: 0
LLC WRITEBACK ACCESS:     757268  HIT:     757238  MISS:         30  HIT %:     99.996  MISS %: 0.00396161   MPKI: 0.0012
LLC LOAD TRANSLATION ACCESS:       1977  HIT:          0  MISS:       1977  HIT %:          0  MISS %:        100   MPKI: 0.07908
LLC PREFETCH  REQUESTED:          0  ISSUED:          0  USEFUL:       5552  USELESS:      73561
LLC USEFUL LOAD PREFETCHES:       5552 PREFETCH ISSUED TO LOWER LEVEL:      89263  ACCURACY: 6.21982
LLC TIMELY PREFETCHES:       5552 LATE PREFETCHES: 10613 DROPPED PREFETCHES: 0
LLC PREFETCHES SAME FILL-ORIGIN LEVEL: 16425 DIFFERENT FILL-ORIGIN LEVEL: 0
LLC AVERAGE MISS LATENCY: 517.192 cycles
LLC RQ	ACCESS:     935642	FORWARD:          0	MERGED:          0	TO_CACHE:     935629
LLC WQ	ACCESS:     757268	FORWARD:         13	MERGED:          0	TO_CACHE:     757268
LLC PQ	ACCESS:      89602	FORWARD:          0	MERGED:         13	TO_CACHE:      89589

LLC Dense regions hint to LLC: 0

RAW hits: 2211661
Reg RAW dependents: 19634010
Loads Generated: 6321678
Loads sent to L1D: 4109994
Stores Generated: 4349455
Stores sent to L1D: 4349460
Major fault: 0 Minor fault: 19681
Allocated PAGES: 19681
Average branch resolution latency (in cycles): 69.7441

DRAM Statistics
 CHANNEL 0
 RQ ROW_BUFFER_HIT:      69841  ROW_BUFFER_MISS:     932873
 DBUS_CONGESTED:          0
 WQ ROW_BUFFER_HIT:     161213  ROW_BUFFER_MISS:     590072  FULL:          0

 AVG_CONGESTED_CYCLE: -
 All warmup complete: 2
Channel 0 Bank busy for read cycles: 0
Channel 0 Bank busy for write cycles: 0
Channel 0
Rank 0
0banks busy for read cycles: 15959
0banks busy for write cycles: 0
1banks busy for read cycles: 1536129
1banks busy for write cycles: 78309
2banks busy for read cycles: 695506
2banks busy for write cycles: 78309
3banks busy for read cycles: 860318
3banks busy for write cycles: 78309
4banks busy for read cycles: 4421522
4banks busy for write cycles: 78309
5banks busy for read cycles: 5655287
5banks busy for write cycles: 78309
6banks busy for read cycles: 5457380
6banks busy for write cycles: 78407
7banks busy for read cycles: 5739155
7banks busy for write cycles: 831719
8banks busy for read cycles: 4575163
8banks busy for write cycles: 14851603

CPU 0 Branch Prediction Accuracy: 97.8416% MPKI: 0.34208 Average ROB Occupancy at Mispredict: 263.029
Branch types
NOT_BRANCH: 24604096 98.4164%
BRANCH_DIRECT_JUMP: 52070 0.20828%
BRANCH_INDIRECT: 0 0%
BRANCH_CONDITIONAL: 344150 1.3766%
BRANCH_DIRECT_CALL: 0 0%
BRANCH_INDIRECT_CALL: 0 0%
BRANCH_RETURN: 0 0%
BRANCH_OTHER: 0 0%

DRAM PAGES: 1048576
Allocated PAGES: 19681
