
*** ChampSim Multicore Out-of-Order Simulator ***

Warmup Instructions: 25000000
Simulation Instructions: 25000000
Number of CPUs: 1
LLC sets: 2048
LLC ways: 16
Off-chip DRAM Size: 4096 MB Channels: 1 Width: 64-bit Data Rate: 6400 MT/s
CPU 0 runs trace/trace1.champsimtrace.xz
.xz
BTB has LRU replacement policy
ITLB has LRU replacement policy
DTLB has LRU replacement policy
STLB has LRU replacement policy
L1I has LRU replacement policy
L1D has LRU replacement policy
CPU 0 L2C Region-Based Offset Prefetcher (Improved) initialized.
L2C has LRU replacement policy
LLC has LRU replacement policy
Heartbeat CPU 0 instructions: 10000000 cycles: 2548596 heartbeat IPC: 3.92373 cumulative IPC: 3.92373 (Simulation time: 0 hr 0 min 14 sec) 
Heartbeat CPU 0 instructions: 20000001 cycles: 5092407 heartbeat IPC: 3.93111 cumulative IPC: 3.92742 (Simulation time: 0 hr 0 min 28 sec) 

Warmup complete CPU 0 instructions: 25000007 cycles: 6360861 (Simulation time: 0 hr 0 min 35 sec) 

Heartbeat CPU 0 instructions: 30000007 cycles: 15953014 heartbeat IPC: 0.920759 cumulative IPC: 0.521259 (Simulation time: 0 hr 1 min 8 sec) 
Heartbeat CPU 0 instructions: 40000002 cycles: 34784135 heartbeat IPC: 0.531036 cumulative IPC: 0.527736 (Simulation time: 0 hr 2 min 12 sec) 
Heartbeat CPU 0 instructions: 50000006 cycles: 53035229 heartbeat IPC: 0.547913 cumulative IPC: 0.535626 (Simulation time: 0 hr 3 min 13 sec) 
Finished CPU 0 instructions: 25000000 cycles: 46674369 cumulative IPC: 0.535626 (Simulation time: 0 hr 3 min 13 sec) 

ChampSim completed all CPUs

Region of Interest Statistics

CPU 0 cumulative IPC: 0.535626 instructions: 25000000 cycles: 46674369
ITLB TOTAL     ACCESS:    3494748  HIT:    3494748  MISS:          0  HIT %:        100  MISS %:          0   MPKI: 0
ITLB LOAD TRANSLATION ACCESS:    3494748  HIT:    3494748  MISS:          0  HIT %:        100  MISS %:          0   MPKI: 0
ITLB PREFETCH  REQUESTED:          0  ISSUED:          0  USEFUL:          0  USELESS:          0
ITLB USEFUL LOAD PREFETCHES:          0 PREFETCH ISSUED TO LOWER LEVEL:          0  ACCURACY: -nan
ITLB TIMELY PREFETCHES:          0 LATE PREFETCHES: 0 DROPPED PREFETCHES: 0
ITLB PREFETCHES SAME FILL-ORIGIN LEVEL: 0 DIFFERENT FILL-ORIGIN LEVEL: 0
ITLB AVERAGE MISS LATENCY: -nan cycles
ITLB RQ	ACCESS:    4462965	FORWARD:          0	MERGED:     968218	TO_CACHE:    3494747

DTLB TOTAL     ACCESS:    3326522  HIT:    3297697  MISS:      28825  HIT %:    99.1335  MISS %:   0.866521   MPKI: 1.153
DTLB LOAD TRANSLATION ACCESS:    3326522  HIT:    3297697  MISS:      28825  HIT %:    99.1335  MISS %:   0.866521   MPKI: 1.153
DTLB PREFETCH  REQUESTED:          0  ISSUED:          0  USEFUL:          0  USELESS:          0
DTLB USEFUL LOAD PREFETCHES:          0 PREFETCH ISSUED TO LOWER LEVEL:          0  ACCURACY: -nan
DTLB TIMELY PREFETCHES:          0 LATE PREFETCHES: 0 DROPPED PREFETCHES: 0
DTLB PREFETCHES SAME FILL-ORIGIN LEVEL: 0 DIFFERENT FILL-ORIGIN LEVEL: 0
DTLB AVERAGE MISS LATENCY: 109.82 cycles
DTLB RQ	ACCESS:    5434540	FORWARD:          0	MERGED:    2096543	TO_CACHE:    3337997

STLB TOTAL     ACCESS:      28825  HIT:      13183  MISS:      15642  HIT %:    45.7346  MISS %:    54.2654   MPKI: 0.62568
STLB LOAD TRANSLATION ACCESS:      28825  HIT:      13183  MISS:      15642  HIT %:    45.7346  MISS %:    54.2654   MPKI: 0.62568
STLB PREFETCH  REQUESTED:          0  ISSUED:          0  USEFUL:          0  USELESS:          0
STLB USEFUL LOAD PREFETCHES:          0 PREFETCH ISSUED TO LOWER LEVEL:          0  ACCURACY: -nan
STLB TIMELY PREFETCHES:          0 LATE PREFETCHES: 0 DROPPED PREFETCHES: 0
STLB PREFETCHES SAME FILL-ORIGIN LEVEL: 0 DIFFERENT FILL-ORIGIN LEVEL: 0
STLB AVERAGE MISS LATENCY: 183.847 cycles
STLB RQ	ACCESS:      28825	FORWARD:          0	MERGED:          0	TO_CACHE:      28825

STLB Hit, L1D data hit: 0
STLB Hit, L2C data hit: 0
STLB Hit, LLC data hit: 0
STLB Hit, LLC data miss: 0
STLB STLB hints to L2: 0
L1D TOTAL     ACCESS:    5331666  HIT:    3680405  MISS:    1651261  HIT %:    69.0292  MISS %:    30.9708   MPKI: 66.0504
L1D LOAD      ACCESS:    1159237  HIT:     909032  MISS:     250205  HIT %:    78.4164  MISS %:    21.5836   MPKI: 10.0082
L1D RFO       ACCESS:    4172429  HIT:    2771373  MISS:    1401056  HIT %:    66.4211  MISS %:    33.5789   MPKI: 56.0422
L1D PREFETCH  REQUESTED:          0  ISSUED:          0  USEFUL:          0  USELESS:          0
L1D USEFUL LOAD PREFETCHES:          0 PREFETCH ISSUED TO LOWER LEVEL:          0  ACCURACY: -nan
L1D TIMELY PREFETCHES:          0 LATE PREFETCHES: 0 DROPPED PREFETCHES: 0
L1D PREFETCHES SAME FILL-ORIGIN LEVEL: 0 DIFFERENT FILL-ORIGIN LEVEL: 0
L1D AVERAGE MISS LATENCY: 330.48 cycles
L1D RQ	ACCESS:    4002774	FORWARD:          0	MERGED:    2517210	TO_CACHE:    1246463
L1D WQ	ACCESS:    4349460	FORWARD:     239101	MERGED:     161383	TO_CACHE:    4188077

L1D UNIQUE REGIONS ACCESSED: 0
L1D REGIONS CONFLICTS: 0
L1D Cross Page Prefetch Requests: 0
L1D Same Page Prefetch Requests: 0
L1D ROI Sum of L1D PQ occupancy: 0
L1D PREFETCHES PUSHED FROM L2C: 0
L1I TOTAL     ACCESS:    4462964  HIT:    4462964  MISS:          0  HIT %:        100  MISS %:          0   MPKI: 0
L1I LOAD      ACCESS:    4462964  HIT:    4462964  MISS:          0  HIT %:        100  MISS %:          0   MPKI: 0
L1I PREFETCH  REQUESTED:          0  ISSUED:          0  USEFUL:          0  USELESS:          0
L1I USEFUL LOAD PREFETCHES:          0 PREFETCH ISSUED TO LOWER LEVEL:          0  ACCURACY: -nan
L1I TIMELY PREFETCHES:          0 LATE PREFETCHES: 0 DROPPED PREFETCHES: 0
L1I PREFETCHES SAME FILL-ORIGIN LEVEL: 0 DIFFERENT FILL-ORIGIN LEVEL: 0
L1I AVERAGE MISS LATENCY: -nan cycles
L1I RQ	ACCESS:    6524249	FORWARD:          0	MERGED:    2061284	TO_CACHE:    4462965

BTB TOTAL     ACCESS:     396212  HIT:     396206  MISS:          6  HIT %:    99.9985  MISS %: 0.00151434   MPKI: 0.00024
BTB BRANCH_DIRECT_JUMP	ACCESS:      52070  HIT:      52069  MISS:          1
BTB BRANCH_INDIRECT	ACCESS:          0  HIT:          0  MISS:          0
BTB BRANCH_CONDITIONAL	ACCESS:     344142  HIT:     344137  MISS:          5
BTB BRANCH_DIRECT_CALL	ACCESS:          0  HIT:          0  MISS:          0
BTB BRANCH_INDIRECT_CALL	ACCESS:          0  HIT:          0  MISS:          0
BTB BRANCH_RETURN	ACCESS:          0  HIT:          0  MISS:          0
BTB BRANCH_OTHER ACCESS:          0  HIT:          0  MISS:          0

L2C TOTAL     ACCESS:    3243578  HIT:    2234809  MISS:    1008769  HIT %:    68.8995  MISS %:    31.1005   MPKI: 40.3508
L2C LOAD      ACCESS:     250205  HIT:      16210  MISS:     233995  HIT %:    6.47869  MISS %:    93.5213   MPKI: 9.3598
L2C DATA LOAD MPKI: 9.3598
L2C INSTRUCTION LOAD MPKI: 0
L2C RFO       ACCESS:    1401056  HIT:     644494  MISS:     756562  HIT %:    46.0006  MISS %:    53.9994   MPKI: 30.2625
L2C PREFETCH  ACCESS:     175616  HIT:     159411  MISS:      16205  HIT %:    90.7725  MISS %:    9.22752   MPKI: 0.6482
AGUS PREFETCH L1 MISS: 0
L2C DATA PREFETCH MPKI: 0.6482
L2C INSTRUCTION PREFETCH MPKI: 0
L2C WRITEBACK ACCESS:    1401057  HIT:    1401027  MISS:         30  HIT %:    99.9979  MISS %: 0.00214124   MPKI: 0.0012
L2C LOAD TRANSLATION ACCESS:      15644  HIT:      13667  MISS:       1977  HIT %:    87.3626  MISS %:    12.6374   MPKI: 0.07908
L2C PREFETCH  REQUESTED:     184789  ISSUED:     184789  USEFUL:      16202  USELESS:         13
L2C USEFUL LOAD PREFETCHES:      16202 PREFETCH ISSUED TO LOWER LEVEL:      21952  ACCURACY: 73.8065
L2C TIMELY PREFETCHES:      16202 LATE PREFETCHES: 67 DROPPED PREFETCHES: 0
L2C PREFETCHES SAME FILL-ORIGIN LEVEL: 16272 DIFFERENT FILL-ORIGIN LEVEL: 5680
L2C AVERAGE MISS LATENCY: 524.526 cycles
L2C RQ	ACCESS:    1666906	FORWARD:          0	MERGED:          0	TO_CACHE:    1666906
L2C WQ	ACCESS:    1401057	FORWARD:          0	MERGED:          0	TO_CACHE:    1401057
L2C PQ	ACCESS:     184789	FORWARD:          0	MERGED:          0	TO_CACHE:     184789

L2C Instructions Evicting Data 0
L2C Translations Evicting Data 1974
L2C Data Evicting Data 1004781
L2C Instructions Evicting Instructions 0
L2C Translations Evicting Instructions 0
L2C Data Evicting Instructions 0
L2C Instructions Evicting Translations 0
L2C Translations Evicting Translations 3
L2C Data Evicting Translations 1981
L2C Dense regions hint from L2: 0
PSCL5 TOTAL     ACCESS:      15642  HIT:      15642  MISS:          0  HIT %:        100  MISS %:          0   MPKI: 0
PSCL5 LOAD TRANSLATION ACCESS:      15642  HIT:      15642  MISS:          0  HIT %:        100  MISS %:          0   MPKI: 0
PSCL5 PREFETCH  REQUESTED:          0  ISSUED:          0  USEFUL:          0  USELESS:          0
PSCL5 USEFUL LOAD PREFETCHES:          0 PREFETCH ISSUED TO LOWER LEVEL:          0  ACCURACY: -nan
PSCL5 TIMELY PREFETCHES:          0 LATE PREFETCHES: 0 DROPPED PREFETCHES: 0
PSCL5 PREFETCHES SAME FILL-ORIGIN LEVEL: 0 DIFFERENT FILL-ORIGIN LEVEL: 0

PSCL4 TOTAL     ACCESS:      15642  HIT:      15642  MISS:          0  HIT %:        100  MISS %:          0   MPKI: 0
PSCL4 LOAD TRANSLATION ACCESS:      15642  HIT:      15642  MISS:          0  HIT %:        100  MISS %:          0   MPKI: 0
PSCL4 PREFETCH  REQUESTED:          0  ISSUED:          0  USEFUL:          0  USELESS:          0
PSCL4 USEFUL LOAD PREFETCHES:          0 PREFETCH ISSUED TO LOWER LEVEL:          0  ACCURACY: -nan
PSCL4 TIMELY PREFETCHES:          0 LATE PREFETCHES: 0 DROPPED PREFETCHES: 0
PSCL4 PREFETCHES SAME FILL-ORIGIN LEVEL: 0 DIFFERENT FILL-ORIGIN LEVEL: 0

PSCL3 TOTAL     ACCESS:      15642  HIT:      15642  MISS:          0  HIT %:        100  MISS %:          0   MPKI: 0
PSCL3 LOAD TRANSLATION ACCESS:      15642  HIT:      15642  MISS:          0  HIT %:        100  MISS %:          0   MPKI: 0
PSCL3 PREFETCH  REQUESTED:          0  ISSUED:          0  USEFUL:          0  USELESS:          0
PSCL3 USEFUL LOAD PREFETCHES:          0 PREFETCH ISSUED TO LOWER LEVEL:          0  ACCURACY: -nan
PSCL3 TIMELY PREFETCHES:          0 LATE PREFETCHES: 0 DROPPED PREFETCHES: 0
PSCL3 PREFETCHES SAME FILL-ORIGIN LEVEL: 0 DIFFERENT FILL-ORIGIN LEVEL: 0

PSCL2 TOTAL     ACCESS:      15642  HIT:      15625  MISS:         17  HIT %:    99.8913  MISS %:   0.108682   MPKI: 0.00068
PSCL2 LOAD TRANSLATION ACCESS:      15642  HIT:      15625  MISS:         17  HIT %:    99.8913  MISS %:   0.108682   MPKI: 0.00068
PSCL2 PREFETCH  REQUESTED:          0  ISSUED:          0  USEFUL:          0  USELESS:          0
PSCL2 USEFUL LOAD PREFETCHES:          0 PREFETCH ISSUED TO LOWER LEVEL:          0  ACCURACY: -nan
PSCL2 TIMELY PREFETCHES:          0 LATE PREFETCHES: 0 DROPPED PREFETCHES: 0
PSCL2 PREFETCHES SAME FILL-ORIGIN LEVEL: 0 DIFFERENT FILL-ORIGIN LEVEL: 0

LLC TOTAL     ACCESS:    1771610  HIT:     768863  MISS:    1002747  HIT %:    43.3991  MISS %:    56.6009   MPKI: 40.1099
LLC LOAD      ACCESS:     233928  HIT:       5601  MISS:     228327  HIT %:    2.39433  MISS %:    97.6057   MPKI: 9.13308
LLC RFO       ACCESS:     756547  HIT:       6008  MISS:     750539  HIT %:   0.794134  MISS %:    99.2059   MPKI: 30.0216
LLC PREFETCH  ACCESS:      21936  HIT:         62  MISS:      21874  HIT %:    0.28264  MISS %:    99.7174   MPKI: 0.87496
AGUS PREFETCH L1 MISS: 0
LLC WRITEBACK ACCESS:     757222  HIT:     757192  MISS:         30  HIT %:     99.996  MISS %: 0.00396185   MPKI: 0.0012
LLC LOAD TRANSLATION ACCESS:       1977  HIT:          0  MISS:       1977  HIT %:          0  MISS %:        100   MPKI: 0.07908
LLC PREFETCH  REQUESTED:          0  ISSUED:          0  USEFUL:       5601  USELESS:      16265
LLC USEFUL LOAD PREFETCHES:       5601 PREFETCH ISSUED TO LOWER LEVEL:      21888  ACCURACY: 25.5894
LLC TIMELY PREFETCHES:       5601 LATE PREFETCHES: 14 DROPPED PREFETCHES: 0
LLC PREFETCHES SAME FILL-ORIGIN LEVEL: 5665 DIFFERENT FILL-ORIGIN LEVEL: 0
LLC AVERAGE MISS LATENCY: 500.516 cycles
LLC RQ	ACCESS:     992468	FORWARD:          0	MERGED:          0	TO_CACHE:     992453
LLC WQ	ACCESS:     757222	FORWARD:         15	MERGED:          0	TO_CACHE:     757222
LLC PQ	ACCESS:      21952	FORWARD:          0	MERGED:          0	TO_CACHE:      21952

LLC Dense regions hint to LLC: 0

RAW hits: 2318878
Reg RAW dependents: 19721398
Loads Generated: 6321676
Loads sent to L1D: 4002774
Stores Generated: 4349455
Stores sent to L1D: 4349460
Major fault: 0 Minor fault: 19681
Allocated PAGES: 19681
Average branch resolution latency (in cycles): 62.5042

DRAM Statistics
 CHANNEL 0
 RQ ROW_BUFFER_HIT:      76712  ROW_BUFFER_MISS:     926005
 DBUS_CONGESTED:          0
 WQ ROW_BUFFER_HIT:     164360  ROW_BUFFER_MISS:     586800  FULL:          0

 AVG_CONGESTED_CYCLE: -
 All warmup complete: 2
Channel 0 Bank busy for read cycles: 0
Channel 0 Bank busy for write cycles: 0
Channel 0
Rank 0
0banks busy for read cycles: 20619
0banks busy for write cycles: 0
1banks busy for read cycles: 2225197
1banks busy for write cycles: 80986
2banks busy for read cycles: 732190
2banks busy for write cycles: 80985
3banks busy for read cycles: 820863
3banks busy for write cycles: 80985
4banks busy for read cycles: 5926700
4banks busy for write cycles: 80985
5banks busy for read cycles: 6376009
5banks busy for write cycles: 80984
6banks busy for read cycles: 5513425
6banks busy for write cycles: 81151
7banks busy for read cycles: 4838494
7banks busy for write cycles: 835703
8banks busy for read cycles: 3875505
8banks busy for write cycles: 15023589

CPU 0 Branch Prediction Accuracy: 97.8416% MPKI: 0.34208 Average ROB Occupancy at Mispredict: 283.181
Branch types
NOT_BRANCH: 24604077 98.4163%
BRANCH_DIRECT_JUMP: 52070 0.20828%
BRANCH_INDIRECT: 0 0%
BRANCH_CONDITIONAL: 344150 1.3766%
BRANCH_DIRECT_CALL: 0 0%
BRANCH_INDIRECT_CALL: 0 0%
BRANCH_RETURN: 0 0%
BRANCH_OTHER: 0 0%

DRAM PAGES: 1048576
Allocated PAGES: 19681
