
*** ChampSim Multicore Out-of-Order Simulator ***

Warmup Instructions: 25000000
Simulation Instructions: 25000000
Number of CPUs: 1
LLC sets: 2048
LLC ways: 16
Off-chip DRAM Size: 4096 MB Channels: 1 Width: 64-bit Data Rate: 6400 MT/s
CPU 0 runs trace/trace1.champsimtrace.xz
.xz
BTB has LRU replacement policy
ITLB has LRU replacement policy
DTLB has LRU replacement policy
STLB has LRU replacement policy
L1I has LRU replacement policy
L1D has LRU replacement policy
CPU 0 L2C Region-Based Offset Prefetcher (Improved) initialized.
L2C has LRU replacement policy
LLC has LRU replacement policy
Heartbeat CPU 0 instructions: 10000000 cycles: 2548742 heartbeat IPC: 3.9235 cumulative IPC: 3.9235 (Simulation time: 0 hr 0 min 14 sec) 
Heartbeat CPU 0 instructions: 20000001 cycles: 5092716 heartbeat IPC: 3.93086 cumulative IPC: 3.92718 (Simulation time: 0 hr 0 min 29 sec) 

Warmup complete CPU 0 instructions: 25000008 cycles: 6361453 (Simulation time: 0 hr 0 min 36 sec) 

Heartbeat CPU 0 instructions: 30000007 cycles: 15883140 heartbeat IPC: 0.926748 cumulative IPC: 0.525117 (Simulation time: 0 hr 1 min 11 sec) 
Heartbeat CPU 0 instructions: 40000002 cycles: 34533672 heartbeat IPC: 0.536177 cumulative IPC: 0.532439 (Simulation time: 0 hr 2 min 17 sec) 
Heartbeat CPU 0 instructions: 50000000 cycles: 52540536 heartbeat IPC: 0.555344 cumulative IPC: 0.54137 (Simulation time: 0 hr 3 min 21 sec) 
Finished CPU 0 instructions: 25000004 cycles: 46179102 cumulative IPC: 0.541371 (Simulation time: 0 hr 3 min 21 sec) 

ChampSim completed all CPUs

Region of Interest Statistics

CPU 0 cumulative IPC: 0.541371 instructions: 25000004 cycles: 46179102
ITLB TOTAL     ACCESS:    3489696  HIT:    3489696  MISS:          0  HIT %:        100  MISS %:          0   MPKI: 0
ITLB LOAD TRANSLATION ACCESS:    3489696  HIT:    3489696  MISS:          0  HIT %:        100  MISS %:          0   MPKI: 0
ITLB PREFETCH  REQUESTED:          0  ISSUED:          0  USEFUL:          0  USELESS:          0
ITLB USEFUL LOAD PREFETCHES:          0 PREFETCH ISSUED TO LOWER LEVEL:          0  ACCURACY: -nan
ITLB TIMELY PREFETCHES:          0 LATE PREFETCHES: 0 DROPPED PREFETCHES: 0
ITLB PREFETCHES SAME FILL-ORIGIN LEVEL: 0 DIFFERENT FILL-ORIGIN LEVEL: 0
ITLB AVERAGE MISS LATENCY: -nan cycles
ITLB RQ	ACCESS:    4459128	FORWARD:          0	MERGED:     969432	TO_CACHE:    3489696

DTLB TOTAL     ACCESS:    3348356  HIT:    3319531  MISS:      28825  HIT %:    99.1391  MISS %:    0.86087   MPKI: 1.153
DTLB LOAD TRANSLATION ACCESS:    3348356  HIT:    3319531  MISS:      28825  HIT %:    99.1391  MISS %:    0.86087   MPKI: 1.153
DTLB PREFETCH  REQUESTED:          0  ISSUED:          0  USEFUL:          0  USELESS:          0
DTLB USEFUL LOAD PREFETCHES:          0 PREFETCH ISSUED TO LOWER LEVEL:          0  ACCURACY: -nan
DTLB TIMELY PREFETCHES:          0 LATE PREFETCHES: 0 DROPPED PREFETCHES: 0
DTLB PREFETCHES SAME FILL-ORIGIN LEVEL: 0 DIFFERENT FILL-ORIGIN LEVEL: 0
DTLB AVERAGE MISS LATENCY: 110.79 cycles
DTLB RQ	ACCESS:    5471074	FORWARD:          0	MERGED:    2111553	TO_CACHE:    3359521

STLB TOTAL     ACCESS:      28825  HIT:      13183  MISS:      15642  HIT %:    45.7346  MISS %:    54.2654   MPKI: 0.62568
STLB LOAD TRANSLATION ACCESS:      28825  HIT:      13183  MISS:      15642  HIT %:    45.7346  MISS %:    54.2654   MPKI: 0.62568
STLB PREFETCH  REQUESTED:          0  ISSUED:          0  USEFUL:          0  USELESS:          0
STLB USEFUL LOAD PREFETCHES:          0 PREFETCH ISSUED TO LOWER LEVEL:          0  ACCURACY: -nan
STLB TIMELY PREFETCHES:          0 LATE PREFETCHES: 0 DROPPED PREFETCHES: 0
STLB PREFETCHES SAME FILL-ORIGIN LEVEL: 0 DIFFERENT FILL-ORIGIN LEVEL: 0
STLB AVERAGE MISS LATENCY: 185.498 cycles
STLB RQ	ACCESS:      28825	FORWARD:          0	MERGED:          0	TO_CACHE:      28825

STLB Hit, L1D data hit: 0
STLB Hit, L2C data hit: 0
STLB Hit, LLC data hit: 0
STLB Hit, LLC data miss: 0
STLB STLB hints to L2: 0
L1D TOTAL     ACCESS:    5370264  HIT:    3719006  MISS:    1651258  HIT %:    69.2518  MISS %:    30.7482   MPKI: 66.0503
L1D LOAD      ACCESS:    1199456  HIT:     949253  MISS:     250203  HIT %:    79.1403  MISS %:    20.8597   MPKI: 10.0081
L1D RFO       ACCESS:    4170808  HIT:    2769753  MISS:    1401055  HIT %:    66.4081  MISS %:    33.5919   MPKI: 56.0422
L1D PREFETCH  REQUESTED:          0  ISSUED:          0  USEFUL:          0  USELESS:          0
L1D USEFUL LOAD PREFETCHES:          0 PREFETCH ISSUED TO LOWER LEVEL:          0  ACCURACY: -nan
L1D TIMELY PREFETCHES:          0 LATE PREFETCHES: 0 DROPPED PREFETCHES: 0
L1D PREFETCHES SAME FILL-ORIGIN LEVEL: 0 DIFFERENT FILL-ORIGIN LEVEL: 0
L1D AVERAGE MISS LATENCY: 331.107 cycles
L1D RQ	ACCESS:    4059420	FORWARD:          0	MERGED:    2542741	TO_CACHE:    1284209
L1D WQ	ACCESS:    4349460	FORWARD:     232470	MERGED:     162595	TO_CACHE:    4186865

L1D UNIQUE REGIONS ACCESSED: 0
L1D REGIONS CONFLICTS: 0
L1D Cross Page Prefetch Requests: 0
L1D Same Page Prefetch Requests: 0
L1D ROI Sum of L1D PQ occupancy: 0
L1D PREFETCHES PUSHED FROM L2C: 0
L1I TOTAL     ACCESS:    4459127  HIT:    4459127  MISS:          0  HIT %:        100  MISS %:          0   MPKI: 0
L1I LOAD      ACCESS:    4459127  HIT:    4459127  MISS:          0  HIT %:        100  MISS %:          0   MPKI: 0
L1I PREFETCH  REQUESTED:          0  ISSUED:          0  USEFUL:          0  USELESS:          0
L1I USEFUL LOAD PREFETCHES:          0 PREFETCH ISSUED TO LOWER LEVEL:          0  ACCURACY: -nan
L1I TIMELY PREFETCHES:          0 LATE PREFETCHES: 0 DROPPED PREFETCHES: 0
L1I PREFETCHES SAME FILL-ORIGIN LEVEL: 0 DIFFERENT FILL-ORIGIN LEVEL: 0
L1I AVERAGE MISS LATENCY: -nan cycles
L1I RQ	ACCESS:    6512261	FORWARD:          0	MERGED:    2053133	TO_CACHE:    4459128

BTB TOTAL     ACCESS:     396212  HIT:     396206  MISS:          6  HIT %:    99.9985  MISS %: 0.00151434   MPKI: 0.00024
BTB BRANCH_DIRECT_JUMP	ACCESS:      52070  HIT:      52069  MISS:          1
BTB BRANCH_INDIRECT	ACCESS:          0  HIT:          0  MISS:          0
BTB BRANCH_CONDITIONAL	ACCESS:     344142  HIT:     344137  MISS:          5
BTB BRANCH_DIRECT_CALL	ACCESS:          0  HIT:          0  MISS:          0
BTB BRANCH_INDIRECT_CALL	ACCESS:          0  HIT:          0  MISS:          0
BTB BRANCH_RETURN	ACCESS:          0  HIT:          0  MISS:          0
BTB BRANCH_OTHER ACCESS:          0  HIT:          0  MISS:          0

L2C TOTAL     ACCESS:    3198308  HIT:    2189633  MISS:    1008675  HIT %:    68.4622  MISS %:    31.5378   MPKI: 40.347
L2C LOAD      ACCESS:     250203  HIT:      23134  MISS:     227069  HIT %:    9.24609  MISS %:    90.7539   MPKI: 9.08276
L2C DATA LOAD MPKI: 9.08276
L2C INSTRUCTION LOAD MPKI: 0
L2C RFO       ACCESS:    1401055  HIT:     644585  MISS:     756470  HIT %:    46.0071  MISS %:    53.9929   MPKI: 30.2588
L2C PREFETCH  ACCESS:     130350  HIT:     107221  MISS:      23129  HIT %:    82.2562  MISS %:    17.7438   MPKI: 0.92516
AGUS PREFETCH L1 MISS: 0
L2C DATA PREFETCH MPKI: 0.92516
L2C INSTRUCTION PREFETCH MPKI: 0
L2C WRITEBACK ACCESS:    1401056  HIT:    1401026  MISS:         30  HIT %:    99.9979  MISS %: 0.00214124   MPKI: 0.0012
L2C LOAD TRANSLATION ACCESS:      15644  HIT:      13667  MISS:       1977  HIT %:    87.3626  MISS %:    12.6374   MPKI: 0.07908
L2C PREFETCH  REQUESTED:     241315  ISSUED:     241315  USEFUL:      23127  USELESS:          8
L2C USEFUL LOAD PREFETCHES:      23127 PREFETCH ISSUED TO LOWER LEVEL:      45685  ACCURACY: 50.6227
L2C TIMELY PREFETCHES:      23127 LATE PREFETCHES: 13155 DROPPED PREFETCHES: 0
L2C PREFETCHES SAME FILL-ORIGIN LEVEL: 36284 DIFFERENT FILL-ORIGIN LEVEL: 9401
L2C AVERAGE MISS LATENCY: 527.043 cycles
L2C RQ	ACCESS:    1666904	FORWARD:          0	MERGED:          0	TO_CACHE:    1666904
L2C WQ	ACCESS:    1401056	FORWARD:          0	MERGED:          0	TO_CACHE:    1401056
L2C PQ	ACCESS:     241315	FORWARD:          0	MERGED:        190	TO_CACHE:     241125

L2C Instructions Evicting Data 0
L2C Translations Evicting Data 1975
L2C Data Evicting Data 1004686
L2C Instructions Evicting Instructions 0
L2C Translations Evicting Instructions 0
L2C Data Evicting Instructions 0
L2C Instructions Evicting Translations 0
L2C Translations Evicting Translations 2
L2C Data Evicting Translations 1982
L2C Dense regions hint from L2: 0
PSCL5 TOTAL     ACCESS:      15642  HIT:      15642  MISS:          0  HIT %:        100  MISS %:          0   MPKI: 0
PSCL5 LOAD TRANSLATION ACCESS:      15642  HIT:      15642  MISS:          0  HIT %:        100  MISS %:          0   MPKI: 0
PSCL5 PREFETCH  REQUESTED:          0  ISSUED:          0  USEFUL:          0  USELESS:          0
PSCL5 USEFUL LOAD PREFETCHES:          0 PREFETCH ISSUED TO LOWER LEVEL:          0  ACCURACY: -nan
PSCL5 TIMELY PREFETCHES:          0 LATE PREFETCHES: 0 DROPPED PREFETCHES: 0
PSCL5 PREFETCHES SAME FILL-ORIGIN LEVEL: 0 DIFFERENT FILL-ORIGIN LEVEL: 0

PSCL4 TOTAL     ACCESS:      15642  HIT:      15642  MISS:          0  HIT %:        100  MISS %:          0   MPKI: 0
PSCL4 LOAD TRANSLATION ACCESS:      15642  HIT:      15642  MISS:          0  HIT %:        100  MISS %:          0   MPKI: 0
PSCL4 PREFETCH  REQUESTED:          0  ISSUED:          0  USEFUL:          0  USELESS:          0
PSCL4 USEFUL LOAD PREFETCHES:          0 PREFETCH ISSUED TO LOWER LEVEL:          0  ACCURACY: -nan
PSCL4 TIMELY PREFETCHES:          0 LATE PREFETCHES: 0 DROPPED PREFETCHES: 0
PSCL4 PREFETCHES SAME FILL-ORIGIN LEVEL: 0 DIFFERENT FILL-ORIGIN LEVEL: 0

PSCL3 TOTAL     ACCESS:      15642  HIT:      15642  MISS:          0  HIT %:        100  MISS %:          0   MPKI: 0
PSCL3 LOAD TRANSLATION ACCESS:      15642  HIT:      15642  MISS:          0  HIT %:        100  MISS %:          0   MPKI: 0
PSCL3 PREFETCH  REQUESTED:          0  ISSUED:          0  USEFUL:          0  USELESS:          0
PSCL3 USEFUL LOAD PREFETCHES:          0 PREFETCH ISSUED TO LOWER LEVEL:          0  ACCURACY: -nan
PSCL3 TIMELY PREFETCHES:          0 LATE PREFETCHES: 0 DROPPED PREFETCHES: 0
PSCL3 PREFETCHES SAME FILL-ORIGIN LEVEL: 0 DIFFERENT FILL-ORIGIN LEVEL: 0

PSCL2 TOTAL     ACCESS:      15642  HIT:      15625  MISS:         17  HIT %:    99.8913  MISS %:   0.108682   MPKI: 0.00068
PSCL2 LOAD TRANSLATION ACCESS:      15642  HIT:      15625  MISS:         17  HIT %:    99.8913  MISS %:   0.108682   MPKI: 0.00068
PSCL2 PREFETCH  REQUESTED:          0  ISSUED:          0  USEFUL:          0  USELESS:          0
PSCL2 USEFUL LOAD PREFETCHES:          0 PREFETCH ISSUED TO LOWER LEVEL:          0  ACCURACY: -nan
PSCL2 TIMELY PREFETCHES:          0 LATE PREFETCHES: 0 DROPPED PREFETCHES: 0
PSCL2 PREFETCHES SAME FILL-ORIGIN LEVEL: 0 DIFFERENT FILL-ORIGIN LEVEL: 0

LLC TOTAL     ACCESS:    1771535  HIT:     768790  MISS:    1002745  HIT %:    43.3968  MISS %:    56.6032   MPKI: 40.1098
LLC LOAD      ACCESS:     213914  HIT:       5534  MISS:     208380  HIT %:    2.58702  MISS %:     97.413   MPKI: 8.3352
LLC RFO       ACCESS:     756457  HIT:       5919  MISS:     750538  HIT %:   0.782464  MISS %:    99.2175   MPKI: 30.0215
LLC PREFETCH  ACCESS:      42002  HIT:        182  MISS:      41820  HIT %:   0.433313  MISS %:    99.5667   MPKI: 1.6728
AGUS PREFETCH L1 MISS: 0
LLC WRITEBACK ACCESS:     757185  HIT:     757155  MISS:         30  HIT %:     99.996  MISS %: 0.00396204   MPKI: 0.0012
LLC LOAD TRANSLATION ACCESS:       1977  HIT:          0  MISS:       1977  HIT %:          0  MISS %:        100   MPKI: 0.07908
LLC PREFETCH  REQUESTED:          0  ISSUED:          0  USEFUL:       5534  USELESS:      36939
LLC USEFUL LOAD PREFETCHES:       5534 PREFETCH ISSUED TO LOWER LEVEL:      45434  ACCURACY: 12.1803
LLC TIMELY PREFETCHES:       5534 LATE PREFETCHES: 3614 DROPPED PREFETCHES: 0
LLC PREFETCHES SAME FILL-ORIGIN LEVEL: 9336 DIFFERENT FILL-ORIGIN LEVEL: 0
LLC AVERAGE MISS LATENCY: 505.047 cycles
LLC RQ	ACCESS:     972363	FORWARD:          0	MERGED:          0	TO_CACHE:     972350
LLC WQ	ACCESS:     757185	FORWARD:         13	MERGED:          0	TO_CACHE:     757185
LLC PQ	ACCESS:      45685	FORWARD:          0	MERGED:          5	TO_CACHE:      45680

LLC Dense regions hint to LLC: 0

RAW hits: 2262235
Reg RAW dependents: 19672690
Loads Generated: 6321678
Loads sent to L1D: 4059420
Stores Generated: 4349455
Stores sent to L1D: 4349460
Major fault: 0 Minor fault: 19681
Allocated PAGES: 19681
Average branch resolution latency (in cycles): 64.6639

DRAM Statistics
 CHANNEL 0
 RQ ROW_BUFFER_HIT:      66406  ROW_BUFFER_MISS:     936309
 DBUS_CONGESTED:          0
 WQ ROW_BUFFER_HIT:     164075  ROW_BUFFER_MISS:     587234  FULL:          0

 AVG_CONGESTED_CYCLE: -
 All warmup complete: 2
Channel 0 Bank busy for read cycles: 0
Channel 0 Bank busy for write cycles: 0
Channel 0
Rank 0
0banks busy for read cycles: 19338
0banks busy for write cycles: 0
1banks busy for read cycles: 2145574
1banks busy for write cycles: 80254
2banks busy for read cycles: 662290
2banks busy for write cycles: 80254
3banks busy for read cycles: 987124
3banks busy for write cycles: 80254
4banks busy for read cycles: 5078820
4banks busy for write cycles: 80253
5banks busy for read cycles: 5768187
5banks busy for write cycles: 80253
6banks busy for read cycles: 5593882
6banks busy for write cycles: 80335
7banks busy for read cycles: 5145908
7banks busy for write cycles: 833229
8banks busy for read cycles: 4464395
8banks busy for write cycles: 14998753

CPU 0 Branch Prediction Accuracy: 97.8416% MPKI: 0.34208 Average ROB Occupancy at Mispredict: 277.884
Branch types
NOT_BRANCH: 24604096 98.4164%
BRANCH_DIRECT_JUMP: 52070 0.20828%
BRANCH_INDIRECT: 0 0%
BRANCH_CONDITIONAL: 344150 1.3766%
BRANCH_DIRECT_CALL: 0 0%
BRANCH_INDIRECT_CALL: 0 0%
BRANCH_RETURN: 0 0%
BRANCH_OTHER: 0 0%

DRAM PAGES: 1048576
Allocated PAGES: 19681
