
*** ChampSim Multicore Out-of-Order Simulator ***

Warmup Instructions: 25000000
Simulation Instructions: 25000000
Number of CPUs: 1
LLC sets: 2048
LLC ways: 16
Off-chip DRAM Size: 4096 MB Channels: 1 Width: 64-bit Data Rate: 6400 MT/s
CPU 0 runs trace/trace1.champsimtrace.xz
.xz
BTB has LRU replacement policy
ITLB has LRU replacement policy
DTLB has LRU replacement policy
STLB has LRU replacement policy
L1I has LRU replacement policy
L1D has LRU replacement policy
CPU 0 L2C Region-Based Offset Prefetcher (Improved) initialized.
L2C has LRU replacement policy
LLC has LRU replacement policy
Heartbeat CPU 0 instructions: 10000000 cycles: 2548587 heartbeat IPC: 3.92374 cumulative IPC: 3.92374 (Simulation time: 0 hr 0 min 15 sec) 
Heartbeat CPU 0 instructions: 20000001 cycles: 5092087 heartbeat IPC: 3.93159 cumulative IPC: 3.92766 (Simulation time: 0 hr 0 min 29 sec) 

Warmup complete CPU 0 instructions: 25000008 cycles: 6360493 (Simulation time: 0 hr 0 min 36 sec) 

Heartbeat CPU 0 instructions: 30000007 cycles: 15908529 heartbeat IPC: 0.924519 cumulative IPC: 0.523668 (Simulation time: 0 hr 1 min 9 sec) 
Heartbeat CPU 0 instructions: 40000002 cycles: 34637438 heartbeat IPC: 0.533934 cumulative IPC: 0.530467 (Simulation time: 0 hr 2 min 13 sec) 
Heartbeat CPU 0 instructions: 50000000 cycles: 52782289 heartbeat IPC: 0.55112 cumulative IPC: 0.53854 (Simulation time: 0 hr 3 min 15 sec) 
Finished CPU 0 instructions: 25000001 cycles: 46421802 cumulative IPC: 0.53854 (Simulation time: 0 hr 3 min 15 sec) 

ChampSim completed all CPUs

Region of Interest Statistics

CPU 0 cumulative IPC: 0.53854 instructions: 25000001 cycles: 46421802
ITLB TOTAL     ACCESS:    3492997  HIT:    3492997  MISS:          0  HIT %:        100  MISS %:          0   MPKI: 0
ITLB LOAD TRANSLATION ACCESS:    3492997  HIT:    3492997  MISS:          0  HIT %:        100  MISS %:          0   MPKI: 0
ITLB PREFETCH  REQUESTED:          0  ISSUED:          0  USEFUL:          0  USELESS:          0
ITLB USEFUL LOAD PREFETCHES:          0 PREFETCH ISSUED TO LOWER LEVEL:          0  ACCURACY: -nan
ITLB TIMELY PREFETCHES:          0 LATE PREFETCHES: 0 DROPPED PREFETCHES: 0
ITLB PREFETCHES SAME FILL-ORIGIN LEVEL: 0 DIFFERENT FILL-ORIGIN LEVEL: 0
ITLB AVERAGE MISS LATENCY: -nan cycles
ITLB RQ	ACCESS:    4460556	FORWARD:          0	MERGED:     967560	TO_CACHE:    3492996

DTLB TOTAL     ACCESS:    3344833  HIT:    3316008  MISS:      28825  HIT %:    99.1382  MISS %:   0.861777   MPKI: 1.153
DTLB LOAD TRANSLATION ACCESS:    3344833  HIT:    3316008  MISS:      28825  HIT %:    99.1382  MISS %:   0.861777   MPKI: 1.153
DTLB PREFETCH  REQUESTED:          0  ISSUED:          0  USEFUL:          0  USELESS:          0
DTLB USEFUL LOAD PREFETCHES:          0 PREFETCH ISSUED TO LOWER LEVEL:          0  ACCURACY: -nan
DTLB TIMELY PREFETCHES:          0 LATE PREFETCHES: 0 DROPPED PREFETCHES: 0
DTLB PREFETCHES SAME FILL-ORIGIN LEVEL: 0 DIFFERENT FILL-ORIGIN LEVEL: 0
DTLB AVERAGE MISS LATENCY: 109.784 cycles
DTLB RQ	ACCESS:    5449480	FORWARD:          0	MERGED:    2093337	TO_CACHE:    3356143

STLB TOTAL     ACCESS:      28825  HIT:      13183  MISS:      15642  HIT %:    45.7346  MISS %:    54.2654   MPKI: 0.62568
STLB LOAD TRANSLATION ACCESS:      28825  HIT:      13183  MISS:      15642  HIT %:    45.7346  MISS %:    54.2654   MPKI: 0.62568
STLB PREFETCH  REQUESTED:          0  ISSUED:          0  USEFUL:          0  USELESS:          0
STLB USEFUL LOAD PREFETCHES:          0 PREFETCH ISSUED TO LOWER LEVEL:          0  ACCURACY: -nan
STLB TIMELY PREFETCHES:          0 LATE PREFETCHES: 0 DROPPED PREFETCHES: 0
STLB PREFETCHES SAME FILL-ORIGIN LEVEL: 0 DIFFERENT FILL-ORIGIN LEVEL: 0
STLB AVERAGE MISS LATENCY: 183.091 cycles
STLB RQ	ACCESS:      28825	FORWARD:          0	MERGED:          0	TO_CACHE:      28825

STLB Hit, L1D data hit: 0
STLB Hit, L2C data hit: 0
STLB Hit, LLC data hit: 0
STLB Hit, LLC data miss: 0
STLB STLB hints to L2: 0
L1D TOTAL     ACCESS:    5348846  HIT:    3697588  MISS:    1651258  HIT %:    69.1287  MISS %:    30.8713   MPKI: 66.0503
L1D LOAD      ACCESS:    1183006  HIT:     932803  MISS:     250203  HIT %:    78.8502  MISS %:    21.1498   MPKI: 10.0081
L1D RFO       ACCESS:    4165840  HIT:    2764785  MISS:    1401055  HIT %:     66.368  MISS %:     33.632   MPKI: 56.0422
L1D PREFETCH  REQUESTED:          0  ISSUED:          0  USEFUL:          0  USELESS:          0
L1D USEFUL LOAD PREFETCHES:          0 PREFETCH ISSUED TO LOWER LEVEL:          0  ACCURACY: -nan
L1D TIMELY PREFETCHES:          0 LATE PREFETCHES: 0 DROPPED PREFETCHES: 0
L1D PREFETCHES SAME FILL-ORIGIN LEVEL: 0 DIFFERENT FILL-ORIGIN LEVEL: 0
L1D AVERAGE MISS LATENCY: 329.613 cycles
L1D RQ	ACCESS:    4036725	FORWARD:          0	MERGED:    2523162	TO_CACHE:    1267805
L1D WQ	ACCESS:    4349460	FORWARD:     245758	MERGED:     167785	TO_CACHE:    4181675

L1D UNIQUE REGIONS ACCESSED: 0
L1D REGIONS CONFLICTS: 0
L1D Cross Page Prefetch Requests: 0
L1D Same Page Prefetch Requests: 0
L1D ROI Sum of L1D PQ occupancy: 0
L1D PREFETCHES PUSHED FROM L2C: 0
L1I TOTAL     ACCESS:    4460555  HIT:    4460555  MISS:          0  HIT %:        100  MISS %:          0   MPKI: 0
L1I LOAD      ACCESS:    4460555  HIT:    4460555  MISS:          0  HIT %:        100  MISS %:          0   MPKI: 0
L1I PREFETCH  REQUESTED:          0  ISSUED:          0  USEFUL:          0  USELESS:          0
L1I USEFUL LOAD PREFETCHES:          0 PREFETCH ISSUED TO LOWER LEVEL:          0  ACCURACY: -nan
L1I TIMELY PREFETCHES:          0 LATE PREFETCHES: 0 DROPPED PREFETCHES: 0
L1I PREFETCHES SAME FILL-ORIGIN LEVEL: 0 DIFFERENT FILL-ORIGIN LEVEL: 0
L1I AVERAGE MISS LATENCY: -nan cycles
L1I RQ	ACCESS:    6518801	FORWARD:          0	MERGED:    2058245	TO_CACHE:    4460556

BTB TOTAL     ACCESS:     396212  HIT:     396206  MISS:          6  HIT %:    99.9985  MISS %: 0.00151434   MPKI: 0.00024
BTB BRANCH_DIRECT_JUMP	ACCESS:      52070  HIT:      52069  MISS:          1
BTB BRANCH_INDIRECT	ACCESS:          0  HIT:          0  MISS:          0
BTB BRANCH_CONDITIONAL	ACCESS:     344142  HIT:     344137  MISS:          5
BTB BRANCH_DIRECT_CALL	ACCESS:          0  HIT:          0  MISS:          0
BTB BRANCH_INDIRECT_CALL	ACCESS:          0  HIT:          0  MISS:          0
BTB BRANCH_RETURN	ACCESS:          0  HIT:          0  MISS:          0
BTB BRANCH_OTHER ACCESS:          0  HIT:          0  MISS:          0

L2C TOTAL     ACCESS:    3257040  HIT:    2248447  MISS:    1008593  HIT %:    69.0334  MISS %:    30.9666   MPKI: 40.3437
L2C LOAD      ACCESS:     250203  HIT:      23255  MISS:     226948  HIT %:    9.29445  MISS %:    90.7055   MPKI: 9.07792
L2C DATA LOAD MPKI: 9.07792
L2C INSTRUCTION LOAD MPKI: 0
L2C RFO       ACCESS:    1401055  HIT:     644668  MISS:     756387  HIT %:     46.013  MISS %:     53.987   MPKI: 30.2555
L2C PREFETCH  ACCESS:     189081  HIT:     165830  MISS:      23251  HIT %:    87.7032  MISS %:    12.2968   MPKI: 0.93004
AGUS PREFETCH L1 MISS: 0
L2C DATA PREFETCH MPKI: 0.93004
L2C INSTRUCTION PREFETCH MPKI: 0
L2C WRITEBACK ACCESS:    1401057  HIT:    1401027  MISS:         30  HIT %:    99.9979  MISS %: 0.00214124   MPKI: 0.0012
L2C LOAD TRANSLATION ACCESS:      15644  HIT:      13667  MISS:       1977  HIT %:    87.3626  MISS %:    12.6374   MPKI: 0.07908
L2C PREFETCH  REQUESTED:     207896  ISSUED:     207896  USEFUL:      23249  USELESS:         12
L2C USEFUL LOAD PREFETCHES:      23249 PREFETCH ISSUED TO LOWER LEVEL:      30345  ACCURACY: 76.6156
L2C TIMELY PREFETCHES:      23249 LATE PREFETCHES: 211 DROPPED PREFETCHES: 0
L2C PREFETCHES SAME FILL-ORIGIN LEVEL: 23462 DIFFERENT FILL-ORIGIN LEVEL: 6883
L2C AVERAGE MISS LATENCY: 525.655 cycles
L2C RQ	ACCESS:    1666904	FORWARD:          0	MERGED:          0	TO_CACHE:    1666904
L2C WQ	ACCESS:    1401057	FORWARD:          0	MERGED:          0	TO_CACHE:    1401057
L2C PQ	ACCESS:     207896	FORWARD:          0	MERGED:          5	TO_CACHE:     207891

L2C Instructions Evicting Data 0
L2C Translations Evicting Data 1975
L2C Data Evicting Data 1004603
L2C Instructions Evicting Instructions 0
L2C Translations Evicting Instructions 0
L2C Data Evicting Instructions 0
L2C Instructions Evicting Translations 0
L2C Translations Evicting Translations 2
L2C Data Evicting Translations 1983
L2C Dense regions hint from L2: 0
PSCL5 TOTAL     ACCESS:      15642  HIT:      15642  MISS:          0  HIT %:        100  MISS %:          0   MPKI: 0
PSCL5 LOAD TRANSLATION ACCESS:      15642  HIT:      15642  MISS:          0  HIT %:        100  MISS %:          0   MPKI: 0
PSCL5 PREFETCH  REQUESTED:          0  ISSUED:          0  USEFUL:          0  USELESS:          0
PSCL5 USEFUL LOAD PREFETCHES:          0 PREFETCH ISSUED TO LOWER LEVEL:          0  ACCURACY: -nan
PSCL5 TIMELY PREFETCHES:          0 LATE PREFETCHES: 0 DROPPED PREFETCHES: 0
PSCL5 PREFETCHES SAME FILL-ORIGIN LEVEL: 0 DIFFERENT FILL-ORIGIN LEVEL: 0

PSCL4 TOTAL     ACCESS:      15642  HIT:      15642  MISS:          0  HIT %:        100  MISS %:          0   MPKI: 0
PSCL4 LOAD TRANSLATION ACCESS:      15642  HIT:      15642  MISS:          0  HIT %:        100  MISS %:          0   MPKI: 0
PSCL4 PREFETCH  REQUESTED:          0  ISSUED:          0  USEFUL:          0  USELESS:          0
PSCL4 USEFUL LOAD PREFETCHES:          0 PREFETCH ISSUED TO LOWER LEVEL:          0  ACCURACY: -nan
PSCL4 TIMELY PREFETCHES:          0 LATE PREFETCHES: 0 DROPPED PREFETCHES: 0
PSCL4 PREFETCHES SAME FILL-ORIGIN LEVEL: 0 DIFFERENT FILL-ORIGIN LEVEL: 0

PSCL3 TOTAL     ACCESS:      15642  HIT:      15642  MISS:          0  HIT %:        100  MISS %:          0   MPKI: 0
PSCL3 LOAD TRANSLATION ACCESS:      15642  HIT:      15642  MISS:          0  HIT %:        100  MISS %:          0   MPKI: 0
PSCL3 PREFETCH  REQUESTED:          0  ISSUED:          0  USEFUL:          0  USELESS:          0
PSCL3 USEFUL LOAD PREFETCHES:          0 PREFETCH ISSUED TO LOWER LEVEL:          0  ACCURACY: -nan
PSCL3 TIMELY PREFETCHES:          0 LATE PREFETCHES: 0 DROPPED PREFETCHES: 0
PSCL3 PREFETCHES SAME FILL-ORIGIN LEVEL: 0 DIFFERENT FILL-ORIGIN LEVEL: 0

PSCL2 TOTAL     ACCESS:      15642  HIT:      15625  MISS:         17  HIT %:    99.8913  MISS %:   0.108682   MPKI: 0.00068
PSCL2 LOAD TRANSLATION ACCESS:      15642  HIT:      15625  MISS:         17  HIT %:    99.8913  MISS %:   0.108682   MPKI: 0.00068
PSCL2 PREFETCH  REQUESTED:          0  ISSUED:          0  USEFUL:          0  USELESS:          0
PSCL2 USEFUL LOAD PREFETCHES:          0 PREFETCH ISSUED TO LOWER LEVEL:          0  ACCURACY: -nan
PSCL2 TIMELY PREFETCHES:          0 LATE PREFETCHES: 0 DROPPED PREFETCHES: 0
PSCL2 PREFETCHES SAME FILL-ORIGIN LEVEL: 0 DIFFERENT FILL-ORIGIN LEVEL: 0

LLC TOTAL     ACCESS:    1772399  HIT:     769656  MISS:    1002743  HIT %:    43.4245  MISS %:    56.5755   MPKI: 40.1097
LLC LOAD      ACCESS:     226737  HIT:       6728  MISS:     220009  HIT %:    2.96731  MISS %:    97.0327   MPKI: 8.80036
LLC RFO       ACCESS:     756374  HIT:       5836  MISS:     750538  HIT %:   0.771576  MISS %:    99.2284   MPKI: 30.0215
LLC PREFETCH  ACCESS:      30281  HIT:         92  MISS:      30189  HIT %:   0.303821  MISS %:    99.6962   MPKI: 1.20756
AGUS PREFETCH L1 MISS: 0
LLC WRITEBACK ACCESS:     757030  HIT:     757000  MISS:         30  HIT %:     99.996  MISS %: 0.00396285   MPKI: 0.0012
LLC LOAD TRANSLATION ACCESS:       1977  HIT:          0  MISS:       1977  HIT %:          0  MISS %:        100   MPKI: 0.07908
LLC PREFETCH  REQUESTED:          0  ISSUED:          0  USEFUL:       6728  USELESS:      23702
LLC USEFUL LOAD PREFETCHES:       6728 PREFETCH ISSUED TO LOWER LEVEL:      30241  ACCURACY: 22.2479
LLC TIMELY PREFETCHES:       6728 LATE PREFETCHES: 52 DROPPED PREFETCHES: 0
LLC PREFETCHES SAME FILL-ORIGIN LEVEL: 6844 DIFFERENT FILL-ORIGIN LEVEL: 0
LLC AVERAGE MISS LATENCY: 501.921 cycles
LLC RQ	ACCESS:     985103	FORWARD:          0	MERGED:          0	TO_CACHE:     985090
LLC WQ	ACCESS:     757030	FORWARD:         13	MERGED:          0	TO_CACHE:     757030
LLC PQ	ACCESS:      30345	FORWARD:          0	MERGED:          0	TO_CACHE:      30345

LLC Dense regions hint to LLC: 0

RAW hits: 2284924
Reg RAW dependents: 19689096
Loads Generated: 6321661
Loads sent to L1D: 4036725
Stores Generated: 4349455
Stores sent to L1D: 4349460
Major fault: 0 Minor fault: 19681
Allocated PAGES: 19681
Average branch resolution latency (in cycles): 64.2786

DRAM Statistics
 CHANNEL 0
 RQ ROW_BUFFER_HIT:      76689  ROW_BUFFER_MISS:     926024
 DBUS_CONGESTED:          0
 WQ ROW_BUFFER_HIT:     163910  ROW_BUFFER_MISS:     587512  FULL:          0

 AVG_CONGESTED_CYCLE: -
 All warmup complete: 2
Channel 0 Bank busy for read cycles: 0
Channel 0 Bank busy for write cycles: 0
Channel 0
Rank 0
0banks busy for read cycles: 20075
0banks busy for write cycles: 0
1banks busy for read cycles: 2061772
1banks busy for write cycles: 80540
2banks busy for read cycles: 842399
2banks busy for write cycles: 80540
3banks busy for read cycles: 801240
3banks busy for write cycles: 80540
4banks busy for read cycles: 5760673
4banks busy for write cycles: 80540
5banks busy for read cycles: 6215901
5banks busy for write cycles: 80539
6banks busy for read cycles: 5451362
6banks busy for write cycles: 80719
7banks busy for read cycles: 5036171
7banks busy for write cycles: 836628
8banks busy for read cycles: 3933350
8banks busy for write cycles: 14978814

CPU 0 Branch Prediction Accuracy: 97.8416% MPKI: 0.34208 Average ROB Occupancy at Mispredict: 283.104
Branch types
NOT_BRANCH: 24604027 98.4161%
BRANCH_DIRECT_JUMP: 52070 0.20828%
BRANCH_INDIRECT: 0 0%
BRANCH_CONDITIONAL: 344150 1.3766%
BRANCH_DIRECT_CALL: 0 0%
BRANCH_INDIRECT_CALL: 0 0%
BRANCH_RETURN: 0 0%
BRANCH_OTHER: 0 0%

DRAM PAGES: 1048576
Allocated PAGES: 19681
