
*** ChampSim Multicore Out-of-Order Simulator ***

Warmup Instructions: 25000000
Simulation Instructions: 25000000
Number of CPUs: 1
LLC sets: 2048
LLC ways: 16
Off-chip DRAM Size: 4096 MB Channels: 1 Width: 64-bit Data Rate: 6400 MT/s
CPU 0 runs trace/trace1.champsimtrace.xz
.xz
BTB has LRU replacement policy
ITLB has LRU replacement policy
DTLB has LRU replacement policy
STLB has LRU replacement policy
L1I has LRU replacement policy
L1D has LRU replacement policy
CPU 0 L2C Region-Based Offset Prefetcher (Improved) initialized.
L2C has LRU replacement policy
LLC has LRU replacement policy
Heartbeat CPU 0 instructions: 10000000 cycles: 2548492 heartbeat IPC: 3.92389 cumulative IPC: 3.92389 (Simulation time: 0 hr 0 min 14 sec) 
Heartbeat CPU 0 instructions: 20000001 cycles: 5092097 heartbeat IPC: 3.93143 cumulative IPC: 3.92766 (Simulation time: 0 hr 0 min 29 sec) 

Warmup complete CPU 0 instructions: 25000008 cycles: 6360611 (Simulation time: 0 hr 0 min 36 sec) 

Heartbeat CPU 0 instructions: 30000007 cycles: 15857241 heartbeat IPC: 0.928925 cumulative IPC: 0.526502 (Simulation time: 0 hr 1 min 8 sec) 
Heartbeat CPU 0 instructions: 40000005 cycles: 34491958 heartbeat IPC: 0.536633 cumulative IPC: 0.533213 (Simulation time: 0 hr 2 min 11 sec) 
Heartbeat CPU 0 instructions: 50000000 cycles: 52519441 heartbeat IPC: 0.554708 cumulative IPC: 0.541608 (Simulation time: 0 hr 3 min 12 sec) 
Finished CPU 0 instructions: 25000001 cycles: 46158836 cumulative IPC: 0.541608 (Simulation time: 0 hr 3 min 12 sec) 

ChampSim completed all CPUs

Region of Interest Statistics

CPU 0 cumulative IPC: 0.541608 instructions: 25000001 cycles: 46158836
ITLB TOTAL     ACCESS:    3488724  HIT:    3488724  MISS:          0  HIT %:        100  MISS %:          0   MPKI: 0
ITLB LOAD TRANSLATION ACCESS:    3488724  HIT:    3488724  MISS:          0  HIT %:        100  MISS %:          0   MPKI: 0
ITLB PREFETCH  REQUESTED:          0  ISSUED:          0  USEFUL:          0  USELESS:          0
ITLB USEFUL LOAD PREFETCHES:          0 PREFETCH ISSUED TO LOWER LEVEL:          0  ACCURACY: -nan
ITLB TIMELY PREFETCHES:          0 LATE PREFETCHES: 0 DROPPED PREFETCHES: 0
ITLB PREFETCHES SAME FILL-ORIGIN LEVEL: 0 DIFFERENT FILL-ORIGIN LEVEL: 0
ITLB AVERAGE MISS LATENCY: -nan cycles
ITLB RQ	ACCESS:    4455903	FORWARD:          0	MERGED:     967180	TO_CACHE:    3488723

DTLB TOTAL     ACCESS:    3370223  HIT:    3341397  MISS:      28826  HIT %:    99.1447  MISS %:   0.855314   MPKI: 1.15304
DTLB LOAD TRANSLATION ACCESS:    3370223  HIT:    3341397  MISS:      28826  HIT %:    99.1447  MISS %:   0.855314   MPKI: 1.15304
DTLB PREFETCH  REQUESTED:          0  ISSUED:          0  USEFUL:          0  USELESS:          0
DTLB USEFUL LOAD PREFETCHES:          0 PREFETCH ISSUED TO LOWER LEVEL:          0  ACCURACY: -nan
DTLB TIMELY PREFETCHES:          0 LATE PREFETCHES: 0 DROPPED PREFETCHES: 0
DTLB PREFETCHES SAME FILL-ORIGIN LEVEL: 0 DIFFERENT FILL-ORIGIN LEVEL: 0
DTLB AVERAGE MISS LATENCY: 111.219 cycles
DTLB RQ	ACCESS:    5481056	FORWARD:          0	MERGED:    2098955	TO_CACHE:    3382101

STLB TOTAL     ACCESS:      28826  HIT:      13184  MISS:      15642  HIT %:    45.7365  MISS %:    54.2635   MPKI: 0.62568
STLB LOAD TRANSLATION ACCESS:      28826  HIT:      13184  MISS:      15642  HIT %:    45.7365  MISS %:    54.2635   MPKI: 0.62568
STLB PREFETCH  REQUESTED:          0  ISSUED:          0  USEFUL:          0  USELESS:          0
STLB USEFUL LOAD PREFETCHES:          0 PREFETCH ISSUED TO LOWER LEVEL:          0  ACCURACY: -nan
STLB TIMELY PREFETCHES:          0 LATE PREFETCHES: 0 DROPPED PREFETCHES: 0
STLB PREFETCHES SAME FILL-ORIGIN LEVEL: 0 DIFFERENT FILL-ORIGIN LEVEL: 0
STLB AVERAGE MISS LATENCY: 186.154 cycles
STLB RQ	ACCESS:      28826	FORWARD:          0	MERGED:          0	TO_CACHE:      28826

STLB Hit, L1D data hit: 0
STLB Hit, L2C data hit: 0
STLB Hit, LLC data hit: 0
STLB Hit, LLC data miss: 0
STLB STLB hints to L2: 0
L1D TOTAL     ACCESS:    5384651  HIT:    3733394  MISS:    1651257  HIT %:     69.334  MISS %:     30.666   MPKI: 66.0503
L1D LOAD      ACCESS:    1215966  HIT:     965762  MISS:     250204  HIT %:    79.4234  MISS %:    20.5766   MPKI: 10.0082
L1D RFO       ACCESS:    4168685  HIT:    2767632  MISS:    1401053  HIT %:     66.391  MISS %:     33.609   MPKI: 56.0421
L1D PREFETCH  REQUESTED:          0  ISSUED:          0  USEFUL:          0  USELESS:          0
L1D USEFUL LOAD PREFETCHES:          0 PREFETCH ISSUED TO LOWER LEVEL:          0  ACCURACY: -nan
L1D TIMELY PREFETCHES:          0 LATE PREFETCHES: 0 DROPPED PREFETCHES: 0
L1D PREFETCHES SAME FILL-ORIGIN LEVEL: 0 DIFFERENT FILL-ORIGIN LEVEL: 0
L1D AVERAGE MISS LATENCY: 330.229 cycles
L1D RQ	ACCESS:    4083791	FORWARD:          0	MERGED:    2539211	TO_CACHE:    1296754
L1D WQ	ACCESS:    4349460	FORWARD:     247826	MERGED:     165158	TO_CACHE:    4184302

L1D UNIQUE REGIONS ACCESSED: 0
L1D REGIONS CONFLICTS: 0
L1D Cross Page Prefetch Requests: 0
L1D Same Page Prefetch Requests: 0
L1D ROI Sum of L1D PQ occupancy: 0
L1D PREFETCHES PUSHED FROM L2C: 0
L1I TOTAL     ACCESS:    4455902  HIT:    4455902  MISS:          0  HIT %:        100  MISS %:          0   MPKI: 0
L1I LOAD      ACCESS:    4455902  HIT:    4455902  MISS:          0  HIT %:        100  MISS %:          0   MPKI: 0
L1I PREFETCH  REQUESTED:          0  ISSUED:          0  USEFUL:          0  USELESS:          0
L1I USEFUL LOAD PREFETCHES:          0 PREFETCH ISSUED TO LOWER LEVEL:          0  ACCURACY: -nan
L1I TIMELY PREFETCHES:          0 LATE PREFETCHES: 0 DROPPED PREFETCHES: 0
L1I PREFETCHES SAME FILL-ORIGIN LEVEL: 0 DIFFERENT FILL-ORIGIN LEVEL: 0
L1I AVERAGE MISS LATENCY: -nan cycles
L1I RQ	ACCESS:    6514844	FORWARD:          0	MERGED:    2058941	TO_CACHE:    4455903

BTB TOTAL     ACCESS:     396212  HIT:     396206  MISS:          6  HIT %:    99.9985  MISS %: 0.00151434   MPKI: 0.00024
BTB BRANCH_DIRECT_JUMP	ACCESS:      52070  HIT:      52069  MISS:          1
BTB BRANCH_INDIRECT	ACCESS:          0  HIT:          0  MISS:          0
BTB BRANCH_CONDITIONAL	ACCESS:     344142  HIT:     344137  MISS:          5
BTB BRANCH_DIRECT_CALL	ACCESS:          0  HIT:          0  MISS:          0
BTB BRANCH_INDIRECT_CALL	ACCESS:          0  HIT:          0  MISS:          0
BTB BRANCH_RETURN	ACCESS:          0  HIT:          0  MISS:          0
BTB BRANCH_OTHER ACCESS:          0  HIT:          0  MISS:          0

L2C TOTAL     ACCESS:    3246278  HIT:    2237539  MISS:    1008739  HIT %:    68.9263  MISS %:    31.0737   MPKI: 40.3496
L2C LOAD      ACCESS:     250204  HIT:      26547  MISS:     223657  HIT %:    10.6101  MISS %:    89.3899   MPKI: 8.94628
L2C DATA LOAD MPKI: 8.94628
L2C INSTRUCTION LOAD MPKI: 0
L2C RFO       ACCESS:    1401053  HIT:     644520  MISS:     756533  HIT %:    46.0025  MISS %:    53.9975   MPKI: 30.2613
L2C PREFETCH  ACCESS:     178322  HIT:     151780  MISS:      26542  HIT %:    85.1157  MISS %:    14.8843   MPKI: 1.06168
AGUS PREFETCH L1 MISS: 0
L2C DATA PREFETCH MPKI: 1.06168
L2C INSTRUCTION PREFETCH MPKI: 0
L2C WRITEBACK ACCESS:    1401055  HIT:    1401025  MISS:         30  HIT %:    99.9979  MISS %: 0.00214124   MPKI: 0.0012
L2C LOAD TRANSLATION ACCESS:      15644  HIT:      13667  MISS:       1977  HIT %:    87.3626  MISS %:    12.6374   MPKI: 0.07908
L2C PREFETCH  REQUESTED:     231434  ISSUED:     231434  USEFUL:      26540  USELESS:         12
L2C USEFUL LOAD PREFETCHES:      26540 PREFETCH ISSUED TO LOWER LEVEL:      39103  ACCURACY: 67.872
L2C TIMELY PREFETCHES:      26540 LATE PREFETCHES: 2980 DROPPED PREFETCHES: 0
L2C PREFETCHES SAME FILL-ORIGIN LEVEL: 29522 DIFFERENT FILL-ORIGIN LEVEL: 9581
L2C AVERAGE MISS LATENCY: 528.91 cycles
L2C RQ	ACCESS:    1666905	FORWARD:          0	MERGED:          0	TO_CACHE:    1666905
L2C WQ	ACCESS:    1401055	FORWARD:          0	MERGED:          0	TO_CACHE:    1401055
L2C PQ	ACCESS:     231434	FORWARD:          0	MERGED:         14	TO_CACHE:     231420

L2C Instructions Evicting Data 0
L2C Translations Evicting Data 1974
L2C Data Evicting Data 1004751
L2C Instructions Evicting Instructions 0
L2C Translations Evicting Instructions 0
L2C Data Evicting Instructions 0
L2C Instructions Evicting Translations 0
L2C Translations Evicting Translations 3
L2C Data Evicting Translations 1981
L2C Dense regions hint from L2: 0
PSCL5 TOTAL     ACCESS:      15642  HIT:      15642  MISS:          0  HIT %:        100  MISS %:          0   MPKI: 0
PSCL5 LOAD TRANSLATION ACCESS:      15642  HIT:      15642  MISS:          0  HIT %:        100  MISS %:          0   MPKI: 0
PSCL5 PREFETCH  REQUESTED:          0  ISSUED:          0  USEFUL:          0  USELESS:          0
PSCL5 USEFUL LOAD PREFETCHES:          0 PREFETCH ISSUED TO LOWER LEVEL:          0  ACCURACY: -nan
PSCL5 TIMELY PREFETCHES:          0 LATE PREFETCHES: 0 DROPPED PREFETCHES: 0
PSCL5 PREFETCHES SAME FILL-ORIGIN LEVEL: 0 DIFFERENT FILL-ORIGIN LEVEL: 0

PSCL4 TOTAL     ACCESS:      15642  HIT:      15642  MISS:          0  HIT %:        100  MISS %:          0   MPKI: 0
PSCL4 LOAD TRANSLATION ACCESS:      15642  HIT:      15642  MISS:          0  HIT %:        100  MISS %:          0   MPKI: 0
PSCL4 PREFETCH  REQUESTED:          0  ISSUED:          0  USEFUL:          0  USELESS:          0
PSCL4 USEFUL LOAD PREFETCHES:          0 PREFETCH ISSUED TO LOWER LEVEL:          0  ACCURACY: -nan
PSCL4 TIMELY PREFETCHES:          0 LATE PREFETCHES: 0 DROPPED PREFETCHES: 0
PSCL4 PREFETCHES SAME FILL-ORIGIN LEVEL: 0 DIFFERENT FILL-ORIGIN LEVEL: 0

PSCL3 TOTAL     ACCESS:      15642  HIT:      15642  MISS:          0  HIT %:        100  MISS %:          0   MPKI: 0
PSCL3 LOAD TRANSLATION ACCESS:      15642  HIT:      15642  MISS:          0  HIT %:        100  MISS %:          0   MPKI: 0
PSCL3 PREFETCH  REQUESTED:          0  ISSUED:          0  USEFUL:          0  USELESS:          0
PSCL3 USEFUL LOAD PREFETCHES:          0 PREFETCH ISSUED TO LOWER LEVEL:          0  ACCURACY: -nan
PSCL3 TIMELY PREFETCHES:          0 LATE PREFETCHES: 0 DROPPED PREFETCHES: 0
PSCL3 PREFETCHES SAME FILL-ORIGIN LEVEL: 0 DIFFERENT FILL-ORIGIN LEVEL: 0

PSCL2 TOTAL     ACCESS:      15642  HIT:      15625  MISS:         17  HIT %:    99.8913  MISS %:   0.108682   MPKI: 0.00068
PSCL2 LOAD TRANSLATION ACCESS:      15642  HIT:      15625  MISS:         17  HIT %:    99.8913  MISS %:   0.108682   MPKI: 0.00068
PSCL2 PREFETCH  REQUESTED:          0  ISSUED:          0  USEFUL:          0  USELESS:          0
PSCL2 USEFUL LOAD PREFETCHES:          0 PREFETCH ISSUED TO LOWER LEVEL:          0  ACCURACY: -nan
PSCL2 TIMELY PREFETCHES:          0 LATE PREFETCHES: 0 DROPPED PREFETCHES: 0
PSCL2 PREFETCHES SAME FILL-ORIGIN LEVEL: 0 DIFFERENT FILL-ORIGIN LEVEL: 0

LLC TOTAL     ACCESS:    1774505  HIT:     771764  MISS:    1002741  HIT %:    43.4918  MISS %:    56.5082   MPKI: 40.1096
LLC LOAD      ACCESS:     220677  HIT:       8485  MISS:     212192  HIT %:    3.84499  MISS %:     96.155   MPKI: 8.48768
LLC RFO       ACCESS:     756526  HIT:       5990  MISS:     750536  HIT %:   0.791777  MISS %:    99.2082   MPKI: 30.0214
LLC PREFETCH  ACCESS:      38089  HIT:         83  MISS:      38006  HIT %:   0.217911  MISS %:    99.7821   MPKI: 1.52024
AGUS PREFETCH L1 MISS: 0
LLC WRITEBACK ACCESS:     757236  HIT:     757206  MISS:         30  HIT %:     99.996  MISS %: 0.00396178   MPKI: 0.0012
LLC LOAD TRANSLATION ACCESS:       1977  HIT:          0  MISS:       1977  HIT %:          0  MISS %:        100   MPKI: 0.07908
LLC PREFETCH  REQUESTED:          0  ISSUED:          0  USEFUL:       8484  USELESS:      29991
LLC USEFUL LOAD PREFETCHES:       8484 PREFETCH ISSUED TO LOWER LEVEL:      38961  ACCURACY: 21.7756
LLC TIMELY PREFETCHES:       8484 LATE PREFETCHES: 955 DROPPED PREFETCHES: 0
LLC PREFETCHES SAME FILL-ORIGIN LEVEL: 9522 DIFFERENT FILL-ORIGIN LEVEL: 0
LLC AVERAGE MISS LATENCY: 507.537 cycles
LLC RQ	ACCESS:     979191	FORWARD:          0	MERGED:          0	TO_CACHE:     979184
LLC WQ	ACCESS:     757236	FORWARD:          7	MERGED:          0	TO_CACHE:     757236
LLC PQ	ACCESS:      39103	FORWARD:          0	MERGED:          0	TO_CACHE:      39103

LLC Dense regions hint to LLC: 0

RAW hits: 2237858
Reg RAW dependents: 19663886
Loads Generated: 6321661
Loads sent to L1D: 4083791
Stores Generated: 4349455
Stores sent to L1D: 4349460
Major fault: 0 Minor fault: 19681
Allocated PAGES: 19681
Average branch resolution latency (in cycles): 61.8518

DRAM Statistics
 CHANNEL 0
 RQ ROW_BUFFER_HIT:      73408  ROW_BUFFER_MISS:     929303
 DBUS_CONGESTED:          0
 WQ ROW_BUFFER_HIT:     165635  ROW_BUFFER_MISS:     585838  FULL:          0

 AVG_CONGESTED_CYCLE: -
 All warmup complete: 2
Channel 0 Bank busy for read cycles: 0
Channel 0 Bank busy for write cycles: 0
Channel 0
Rank 0
0banks busy for read cycles: 19653
0banks busy for write cycles: 0
1banks busy for read cycles: 2044026
1banks busy for write cycles: 80473
2banks busy for read cycles: 676612
2banks busy for write cycles: 80471
3banks busy for read cycles: 742345
3banks busy for write cycles: 80471
4banks busy for read cycles: 5540421
4banks busy for write cycles: 80471
5banks busy for read cycles: 6015826
5banks busy for write cycles: 80470
6banks busy for read cycles: 5590160
6banks busy for write cycles: 80610
7banks busy for read cycles: 5011524
7banks busy for write cycles: 834861
8banks busy for read cycles: 4190507
8banks busy for write cycles: 15009936

CPU 0 Branch Prediction Accuracy: 97.8416% MPKI: 0.34208 Average ROB Occupancy at Mispredict: 277.253
Branch types
NOT_BRANCH: 24604027 98.4161%
BRANCH_DIRECT_JUMP: 52070 0.20828%
BRANCH_INDIRECT: 0 0%
BRANCH_CONDITIONAL: 344150 1.3766%
BRANCH_DIRECT_CALL: 0 0%
BRANCH_INDIRECT_CALL: 0 0%
BRANCH_RETURN: 0 0%
BRANCH_OTHER: 0 0%

DRAM PAGES: 1048576
Allocated PAGES: 19681
